
 Fire Dynamics Simulator

 Current Date     : November  9, 2015  09:55:28
 Version          : FDS 6.3.0
 Revision         : Git-r1-12-gf7f4148
 Revision Date    : Wed Sep 30 23:20:47 2015 -0400
 Compilation Date : Oct 01, 2015  08:23:41

 MPI Enabled; Number of MPI Processes:     1
 OpenMP Enabled; Number of OpenMP Threads:   2

 Job TITLE        : 
 Job ID string    : burner


 Grid Dimensions, Mesh     1

   Cells in the X Direction           100
   Cells in the Y Direction           100
   Cells in the Z Direction           150


 Physical Dimensions, Mesh     1

   Length (m)                       2.000
   Width  (m)                       2.000
   Height (m)                       3.000
   Initial Time Step (s)            0.018


 Miscellaneous Parameters

   Simulation Start Time (s)          0.0
   Simulation End Time (s)           10.0
   LES Calculation
   Deardorff Model (C_DEARDORFF)     0.10
   Turbulent Prandtl Number          0.50
   Turbulent Schmidt Number          0.50
   Ambient Temperature (C)          20.00


 Mass Fraction Transformation Matrix to Convert Species Mixtures (Columns) to Primitive Species (Rows)

                         AIR       REAC_FUE  PRODUCTS
   REAC_FUEL             0.000000  1.000000  0.000000
   NITROGEN              0.763018  0.000000  0.669595
   OXYGEN                0.231164  0.000000  0.000000
   CARBON DIOXIDE        0.000592  0.000000  0.193121
   CARBON MONOXIDE       0.000000  0.000000  0.005558
   WATER VAPOR           0.005226  0.000000  0.105524
   SOOT                  0.000000  0.000000  0.026202


 Primitive Species Information

   REAC_FUEL
   Gas Species
   Molecular Weight (g/mol)            19.64455
   Ambient Density (kg/m^3)            0.817
   Enthalpy of Formation (J/kg)     not specified

   NITROGEN
   Gas Species
   Molecular Weight (g/mol)            28.01340
   Ambient Density (kg/m^3)            1.165
   Enthalpy of Formation (J/kg)        0.00E+00

   OXYGEN
   Gas Species
   Molecular Weight (g/mol)            31.99880
   Ambient Density (kg/m^3)            1.330
   Enthalpy of Formation (J/kg)        0.00E+00

   CARBON DIOXIDE
   Gas Species
   Molecular Weight (g/mol)            44.00950
   Ambient Density (kg/m^3)            1.830
   Enthalpy of Formation (J/kg)       -8.94E+06

   CARBON MONOXIDE
   Gas Species
   Molecular Weight (g/mol)            28.01010
   Ambient Density (kg/m^3)            1.164
   Enthalpy of Formation (J/kg)       -3.95E+06

   WATER VAPOR
   Gas Species
   Molecular Weight (g/mol)            18.01528
   Ambient Density (kg/m^3)            0.749
   Enthalpy of Formation (J/kg)       -1.34E+07

   SOOT
   Gas Species
   Molecular Weight (g/mol)            10.91042
   Ambient Density (kg/m^3)            0.454
   Enthalpy of Formation (J/kg)        0.00E+00


 Tracked (Lumped) Species Information

   AIR
   Molecular Weight (g/mol)            28.76431
   Ambient Density (kg/m^3)            1.196
   Initial Mass Fraction               1.000
   Enthalpy of Formation (J/kg)     -7.54E+04

   Sub Species                    Mass Fraction     Mole Fraction
   NITROGEN                       7.630183E-01      7.834714E-01
   OXYGEN                         2.311635E-01      2.077972E-01
   CARBON DIOXIDE                 5.918904E-04      3.868556E-04
   WATER VAPOR                    5.226258E-03      8.344567E-03
 
   Viscosity (kg/m/s)   Ambient (293 K):  1.80E-05
                                  500 K:  2.61E-05
                                 1000 K:  4.13E-05
                                 1500 K:  5.37E-05
   Therm. Cond. (W/m/K) Ambient (293 K):  2.56E-02
                                  500 K:  3.81E-02
                                 1000 K:  6.68E-02
                                 1500 K:  9.25E-02
   Spec. Heat (J/kg/K)  Ambient (293 K):  1.02E+03
                                  500 K:  1.04E+03
                                 1000 K:  1.16E+03
                                 1500 K:  1.23E+03
   Diff. Coeff. (m^2/s) Ambient (293 K):  1.99E-05
                                  500 K:  4.96E-05
                                 1000 K:  1.58E-04
                                 1500 K:  3.09E-04

   REAC_FUEL
   Molecular Weight (g/mol)            19.64455
   Ambient Density (kg/m^3)            0.817
   Initial Mass Fraction               0.000
   Enthalpy of Formation (J/kg)     -3.57E+06

   Sub Species                    Mass Fraction     Mole Fraction
   REAC_FUEL                      1.000000E+00      1.000000E+00
 
   Viscosity (kg/m/s)   Ambient (293 K):  1.49E-05
                                  500 K:  2.17E-05
                                 1000 K:  3.41E-05
                                 1500 K:  4.44E-05
   Therm. Cond. (W/m/K) Ambient (293 K):  4.42E-02
                                  500 K:  6.42E-02
                                 1000 K:  1.01E-01
                                 1500 K:  1.32E-01
   Spec. Heat (J/kg/K)  Ambient (293 K):  1.48E+03
                                  500 K:  1.48E+03
                                 1000 K:  1.48E+03
                                 1500 K:  1.48E+03
   Diff. Coeff. (m^2/s) Ambient (293 K):  2.21E-05
                                  500 K:  5.51E-05
                                 1000 K:  1.75E-04
                                 1500 K:  3.43E-04

   PRODUCTS
   Molecular Weight (g/mol)            27.21216
   Ambient Density (kg/m^3)            1.131
   Initial Mass Fraction               0.000
   Enthalpy of Formation (J/kg)     -3.17E+06

   Sub Species                    Mass Fraction     Mole Fraction
   NITROGEN                       6.695953E-01      6.504435E-01
   CARBON DIOXIDE                 1.931210E-01      1.194115E-01
   CARBON MONOXIDE                5.557921E-03      5.399590E-03
   WATER VAPOR                    1.055242E-01      1.593948E-01
   SOOT                           2.620163E-02      6.535062E-02
 
   Viscosity (kg/m/s)   Ambient (293 K):  1.58E-05
                                  500 K:  2.35E-05
                                 1000 K:  3.83E-05
                                 1500 K:  5.07E-05
   Therm. Cond. (W/m/K) Ambient (293 K):  2.29E-02
                                  500 K:  3.62E-02
                                 1000 K:  6.81E-02
                                 1500 K:  9.78E-02
   Spec. Heat (J/kg/K)  Ambient (293 K):  1.08E+03
                                  500 K:  1.15E+03
                                 1000 K:  1.32E+03
                                 1500 K:  1.43E+03
   Diff. Coeff. (m^2/s) Ambient (293 K):  1.99E-05
                                  500 K:  5.05E-05
                                 1000 K:  1.63E-04
                                 1500 K:  3.21E-04


 Gas Phase Reaction Information

   SFPE Handbook, GM27

   Reaction ID:  POLYURETHANE_REAC

   Fuel                                           Heat of Combustion (kJ/kg)
   REAC_FUEL                                                      19855.5253

   Stoichiometry

   Primitive Species
   Species ID                                                 Stoich. Coeff.
   REAC_FUEL                                                       -1.000000
   NITROGEN                                                         0.040000
   OXYGEN                                                          -0.930505
   CARBON DIOXIDE                                                   0.649689
   CARBON MONOXIDE                                                  0.029456
   WATER VAPOR                                                      0.832175
   SOOT                                                             0.356505

   Tracked (Lumped) Species
   Species ID                                                 Stoich. Coeff.
   AIR                                                             -4.477947
   REAC_FUEL                                                       -1.000000
   PRODUCTS                                                         5.455267

   Reaction Kinetics

   Arrhenius Parameters
   Pre-exponential:    Infinite
   Activation Energy:  N/A

   ODE Solver:  EXPLICIT EULER
   Extinction Model:  EXTINCTION 2
   Ignition Temperature (K):            0.0
   Critical Flame Temperature (K):   1600.2


 Material Information


 Surface Conditions

   0 INERT (DEFAULT)

   1 burner
     HRR Per Unit Area (kW/m2)        500.0
     REAC_FUEL Mass Flux (kg/s/m2)   2.52E-02

   2 OPEN
     Passive Vent to Atmosphere

   3 MIRROR
     Symmetry Plane

   4 INTERPOLATED

   5 PERIODIC

   6 HVAC

   7 MASSLESS TRACER

   8 DROPLET

   9 VEGETATION

  10 EVACUATION_OUTFLOW
     Normal Velocity (m/s)         0.000

  11 MASSLESS TARGET


 Device Coordinates

     1 Coords:     0.00     0.00     1.50, Make: null, ID: temp 1.5 m, Quantity: TEMPERATURE


 Slice File Information, Mesh     1

   Sampling Interval (s)             0.010

   1 Nodes:   0 100  50  50   0 150, Quantity: TEMPERATURE


 Radiation Model Information

   Number of control angles  104
   Time step increment         3
   Angle increment             5
   Theta band N_phi   Solid angle
     1:        4  0.12
     2:       12  0.11
     3:       16  0.13
     4:       20  0.12
     5:       20  0.12
     6:       16  0.13
     7:       12  0.11
     8:        4  0.12
   Using gray gas absorption.
   Mean beam length  0.100 m
 
 

 Run Time Diagnostics

       Time Step       1   November  9, 2015  09:55:38
       Pressure Iterations:      1
       Maximum Velocity Error:  0.33E-17 on Mesh   1 at (  72  31   0)
       ---------------------------------------------------------------
       CPU/step:     0.299E+02 s, Total CPU:       29.88 s
       Time step:    0.183E-01 s, Total time:       0.02 s
       Max CFL number:  0.18E-01 at ( 75, 82, 27)
       Max divergence:  0.11E+00 at ( 45, 52,  1)
       Min divergence: -0.81E-06 at (  2, 19,  2)
       Max VN number:   0.22E-01 at ( 11, 43, 85)
       Max HRRPUV:  0.57E+02 kW/m^3
       Total Heat Release Rate:              1.135 kW
       Radiation Loss to Boundaries:        -0.367 kW
 
       Time Step       2   November  9, 2015  09:55:41
       Pressure Iterations:      1
       Maximum Velocity Error:  0.16E-16 on Mesh   1 at (  39  47   0)
       ---------------------------------------------------------------
       CPU/step:     0.336E+01 s, Total CPU:       33.24 s
       Time step:    0.183E-01 s, Total time:       0.04 s
       Max CFL number:  0.20E-01 at ( 66, 42,  1)
       Max divergence:  0.41E+00 at ( 66, 42,  1)
       Min divergence: -0.16E+00 at ( 25, 69,  1)
       Max VN number:   0.22E-01 at ( 11, 43, 85)
       Max HRRPUV:  0.21E+03 kW/m^3
       Total Heat Release Rate:              4.256 kW
       Radiation Loss to Boundaries:        -1.460 kW
 
       Time Step       3   November  9, 2015  09:55:45
       Pressure Iterations:      1
       Maximum Velocity Error:  0.26E-16 on Mesh   1 at (  42  46   0)
       ---------------------------------------------------------------
       CPU/step:     0.351E+01 s, Total CPU:       36.75 s
       Time step:    0.183E-01 s, Total time:       0.05 s
       Max CFL number:  0.31E-01 at ( 66, 42,  1)
       Max divergence:  0.10E+01 at ( 66, 42,  1)
       Min divergence: -0.15E+00 at ( 26, 37,  2)
       Max VN number:   0.21E-01 at ( 11, 43, 85)
       Max HRRPUV:  0.45E+03 kW/m^3
       Total Heat Release Rate:              8.868 kW
       Radiation Loss to Boundaries:        -3.077 kW
 
       Time Step       4   November  9, 2015  09:55:50
       Pressure Iterations:      1
       Maximum Velocity Error:  0.38E-16 on Mesh   1 at (  44  38   0)
       ---------------------------------------------------------------
       CPU/step:     0.496E+01 s, Total CPU:       41.71 s
       Time step:    0.183E-01 s, Total time:       0.07 s
       Max CFL number:  0.53E-01 at ( 54, 75,  1)
       Max divergence:  0.16E+01 at ( 66, 42,  1)
       Min divergence: -0.19E+00 at ( 60, 30,  2)
       Max VN number:   0.21E-01 at ( 11, 43, 85)
       Max HRRPUV:  0.74E+03 kW/m^3
       Total Heat Release Rate:             14.596 kW
       Radiation Loss to Boundaries:        -5.007 kW
 
       Time Step       5   November  9, 2015  09:55:53
       Pressure Iterations:      1
       Maximum Velocity Error:  0.62E-16 on Mesh   1 at (  44  38   0)
       ---------------------------------------------------------------
       CPU/step:     0.348E+01 s, Total CPU:       45.18 s
       Time step:    0.183E-01 s, Total time:       0.09 s
       Max CFL number:  0.76E-01 at ( 54, 75,  1)
       Max divergence:  0.22E+01 at ( 66, 42,  1)
       Min divergence: -0.20E+00 at ( 25, 42,  2)
       Max VN number:   0.21E-01 at ( 11, 87,108)
       Max HRRPUV:  0.11E+04 kW/m^3
       Total Heat Release Rate:             21.157 kW
       Radiation Loss to Boundaries:        -7.316 kW
 
       Time Step       6   November  9, 2015  09:55:57
       Pressure Iterations:      1
       Maximum Velocity Error:  0.73E-16 on Mesh   1 at (  43  48   0)
       ---------------------------------------------------------------
       CPU/step:     0.358E+01 s, Total CPU:       48.76 s
       Time step:    0.183E-01 s, Total time:       0.11 s
       Max CFL number:  0.99E-01 at ( 54, 75,  1)
       Max divergence:  0.28E+01 at ( 66, 42,  1)
       Min divergence: -0.18E+00 at ( 71, 76,  2)
       Max VN number:   0.21E-01 at ( 54, 46,  2)
       Max HRRPUV:  0.14E+04 kW/m^3
       Total Heat Release Rate:             28.337 kW
       Radiation Loss to Boundaries:        -9.829 kW
 
       Time Step       7   November  9, 2015  09:56:02
       Pressure Iterations:      1
       Maximum Velocity Error:  0.82E-16 on Mesh   1 at (  44  38   0)
       ---------------------------------------------------------------
       CPU/step:     0.468E+01 s, Total CPU:       53.44 s
       Time step:    0.183E-01 s, Total time:       0.13 s
       Max CFL number:  0.12E+00 at ( 54, 75,  1)
       Max divergence:  0.34E+01 at ( 66, 48,  1)
       Min divergence: -0.14E+00 at ( 74, 76,  2)
       Max VN number:   0.22E-01 at ( 54, 46,  2)
       Max HRRPUV:  0.18E+04 kW/m^3
       Total Heat Release Rate:             35.975 kW
       Radiation Loss to Boundaries:       -12.269 kW
 
       Time Step       8   November  9, 2015  09:56:05
       Pressure Iterations:      1
       Maximum Velocity Error:  0.86E-16 on Mesh   1 at (  44  38   0)
       ---------------------------------------------------------------
       CPU/step:     0.351E+01 s, Total CPU:       56.95 s
       Time step:    0.183E-01 s, Total time:       0.15 s
       Max CFL number:  0.14E+00 at ( 54, 75,  1)
       Max divergence:  0.40E+01 at ( 60, 30,  1)
       Min divergence: -0.99E-01 at ( 25, 76,  2)
       Max VN number:   0.24E-01 at ( 27, 75,  2)
       Max HRRPUV:  0.22E+04 kW/m^3
       Total Heat Release Rate:             43.946 kW
       Radiation Loss to Boundaries:       -15.141 kW
 
       Time Step       9   November  9, 2015  09:56:09
       Pressure Iterations:      1
       Maximum Velocity Error:  0.11E-15 on Mesh   1 at (  57  40   0)
       ---------------------------------------------------------------
       CPU/step:     0.350E+01 s, Total CPU:        1.01 min
       Time step:    0.183E-01 s, Total time:       0.16 s
       Max CFL number:  0.16E+00 at ( 54, 75,  1)
       Max divergence:  0.46E+01 at ( 63, 51,  1)
       Min divergence: -0.67E-01 at ( 25, 25,  2)
       Max VN number:   0.27E-01 at ( 27, 75,  2)
       Max HRRPUV:  0.27E+04 kW/m^3
       Total Heat Release Rate:             52.158 kW
       Radiation Loss to Boundaries:       -18.015 kW
 
       Time Step      10   November  9, 2015  09:56:14
       Pressure Iterations:      1
       Maximum Velocity Error:  0.13E-15 on Mesh   1 at (  47  45   0)
       ---------------------------------------------------------------
       CPU/step:     0.491E+01 s, Total CPU:        1.09 min
       Time step:    0.183E-01 s, Total time:       0.18 s
       Max CFL number:  0.18E+00 at ( 66, 42,  1)
       Max divergence:  0.53E+01 at ( 63, 51,  1)
       Min divergence: -0.40E-01 at ( 76, 25,  2)
       Max VN number:   0.30E-01 at ( 27, 75,  2)
       Max HRRPUV:  0.31E+04 kW/m^3
       Total Heat Release Rate:             60.536 kW
       Radiation Loss to Boundaries:       -20.356 kW
 
       Time Step      20   November  9, 2015  09:56:53
       Pressure Iterations:      1
       Maximum Velocity Error:  0.37E-15 on Mesh   1 at (  53  60   0)
       ---------------------------------------------------------------
       CPU/step:     0.387E+01 s, Total CPU:        1.73 min
       Time step:    0.183E-01 s, Total time:       0.37 s
       Max CFL number:  0.93E+00 at ( 74, 75,  1)
       Max divergence:  0.25E+02 at ( 40, 75,  1)
       Min divergence: -0.63E+01 at ( 51, 27,  1)
       Max VN number:   0.35E+00 at ( 75, 75,  2)
       Max HRRPUV:  0.96E+04 kW/m^3
       Total Heat Release Rate:             20.674 kW
       Radiation Loss to Boundaries:       -24.411 kW
 
       Time Step      30   November  9, 2015  09:57:34
       Pressure Iterations:      1
       Maximum Velocity Error:  0.41E-15 on Mesh   1 at (  53  62   0)
       ---------------------------------------------------------------
       CPU/step:     0.416E+01 s, Total CPU:        2.43 min
       Time step:    0.104E-01 s, Total time:       0.49 s
       Max CFL number:  0.90E+00 at ( 72, 28,  1)
       Max divergence:  0.38E+02 at ( 28, 30,  1)
       Min divergence: -0.57E+01 at ( 73, 32,  4)
       Max VN number:   0.28E+00 at ( 27, 74,  4)
       Max HRRPUV:  0.15E+05 kW/m^3
       Total Heat Release Rate:             74.082 kW
       Radiation Loss to Boundaries:       -23.869 kW
 
       Time Step      40   November  9, 2015  09:58:17
       Pressure Iterations:      1
       Maximum Velocity Error:  0.40E-15 on Mesh   1 at (  54  33   0)
       ---------------------------------------------------------------
       CPU/step:     0.420E+01 s, Total CPU:        3.13 min
       Time step:    0.710E-02 s, Total time:       0.58 s
       Max CFL number:  0.82E+00 at ( 30, 30,  7)
       Max divergence:  0.35E+02 at ( 43, 30,  1)
       Min divergence: -0.96E+01 at ( 71, 30,  2)
       Max VN number:   0.37E+00 at ( 30, 30,  7)
       Max HRRPUV:  0.15E+05 kW/m^3
       Total Heat Release Rate:            140.201 kW
       Radiation Loss to Boundaries:       -44.147 kW
 
       Time Step      50   November  9, 2015  09:58:56
       Pressure Iterations:      1
       Maximum Velocity Error:  0.40E-15 on Mesh   1 at (  54  33   0)
       ---------------------------------------------------------------
       CPU/step:     0.390E+01 s, Total CPU:        3.78 min
       Time step:    0.544E-02 s, Total time:       0.64 s
       Max CFL number:  0.87E+00 at ( 31, 30, 10)
       Max divergence:  0.30E+02 at ( 73, 46,  1)
       Min divergence: -0.12E+02 at ( 70, 70,  9)
       Max VN number:   0.34E+00 at ( 69, 71,  9)
       Max HRRPUV:  0.16E+05 kW/m^3
       Total Heat Release Rate:            184.438 kW
       Radiation Loss to Boundaries:       -60.301 kW
 
       Time Step      60   November  9, 2015  09:59:33
       Pressure Iterations:      1
       Maximum Velocity Error:  0.42E-15 on Mesh   1 at (  54  33   0)
       ---------------------------------------------------------------
       CPU/step:     0.365E+01 s, Total CPU:        4.39 min
       Time step:    0.544E-02 s, Total time:       0.70 s
       Max CFL number:  0.92E+00 at ( 31, 32,  7)
       Max divergence:  0.29E+02 at ( 38, 29,  1)
       Min divergence: -0.12E+02 at ( 70, 70, 13)
       Max VN number:   0.46E+00 at ( 30, 69, 11)
       Max HRRPUV:  0.17E+05 kW/m^3
       Total Heat Release Rate:            188.761 kW
       Radiation Loss to Boundaries:       -60.222 kW
 
       Time Step      70   November  9, 2015  10:00:12
       Pressure Iterations:      1
       Maximum Velocity Error:  0.40E-15 on Mesh   1 at (  50  40   0)
       ---------------------------------------------------------------
       CPU/step:     0.387E+01 s, Total CPU:        5.03 min
       Time step:    0.510E-02 s, Total time:       0.75 s
       Max CFL number:  0.96E+00 at ( 70, 30, 14)
       Max divergence:  0.37E+02 at ( 39, 31,  1)
       Min divergence: -0.14E+02 at ( 69, 32,  4)
       Max VN number:   0.31E+00 at ( 30, 69, 15)
       Max HRRPUV:  0.16E+05 kW/m^3
       Total Heat Release Rate:            195.919 kW
       Radiation Loss to Boundaries:       -60.624 kW
 
       Time Step      80   November  9, 2015  10:00:49
       Pressure Iterations:      1
       Maximum Velocity Error:  0.41E-15 on Mesh   1 at (  45  37   0)
       ---------------------------------------------------------------
       CPU/step:     0.364E+01 s, Total CPU:        5.64 min
       Time step:    0.454E-02 s, Total time:       0.80 s
       Max CFL number:  0.86E+00 at ( 32, 30, 17)
       Max divergence:  0.31E+02 at ( 29, 43,  1)
       Min divergence: -0.16E+02 at ( 32, 30, 18)
       Max VN number:   0.36E+00 at ( 32, 30, 17)
       Max HRRPUV:  0.14E+05 kW/m^3
       Total Heat Release Rate:            211.023 kW
       Radiation Loss to Boundaries:       -68.653 kW
 
       Time Step      90   November  9, 2015  10:01:24
       Pressure Iterations:      1
       Maximum Velocity Error:  0.41E-15 on Mesh   1 at (  50  40   0)
       ---------------------------------------------------------------
       CPU/step:     0.354E+01 s, Total CPU:        6.23 min
       Time step:    0.454E-02 s, Total time:       0.84 s
       Max CFL number:  0.89E+00 at ( 31, 29, 21)
       Max divergence:  0.31E+02 at ( 42, 59,  2)
       Min divergence: -0.10E+02 at ( 33, 36,  3)
       Max VN number:   0.28E+00 at ( 67, 35,  8)
       Max HRRPUV:  0.16E+05 kW/m^3
       Total Heat Release Rate:            247.642 kW
       Radiation Loss to Boundaries:       -82.249 kW
 
       Time Step     100   November  9, 2015  10:02:02
       Pressure Iterations:      1
       Maximum Velocity Error:  0.45E-15 on Mesh   1 at (  54  37   0)
       ---------------------------------------------------------------
       CPU/step:     0.376E+01 s, Total CPU:        6.85 min
       Time step:    0.407E-02 s, Total time:       0.89 s
       Max CFL number:  0.94E+00 at ( 69, 46, 17)
       Max divergence:  0.32E+02 at ( 64, 54,  5)
       Min divergence: -0.12E+02 at ( 67, 35, 11)
       Max VN number:   0.28E+00 at ( 67, 36,  9)
       Max HRRPUV:  0.16E+05 kW/m^3
       Total Heat Release Rate:            263.185 kW
       Radiation Loss to Boundaries:       -83.186 kW
 
       Time Step     200   November  9, 2015  10:08:09
       Pressure Iterations:      1
       Maximum Velocity Error:  0.60E-15 on Mesh   1 at (  59  59   0)
       ---------------------------------------------------------------
       CPU/step:     0.363E+01 s, Total CPU:       12.91 min
       Time step:    0.255E-02 s, Total time:       1.20 s
       Max CFL number:  0.86E+00 at ( 44, 32, 34)
       Max divergence:  0.70E+02 at ( 57, 56, 20)
       Min divergence: -0.19E+02 at ( 30, 54, 41)
       Max VN number:   0.27E+00 at ( 43, 57, 19)
       Max HRRPUV:  0.34E+05 kW/m^3
       Total Heat Release Rate:            287.312 kW
       Radiation Loss to Boundaries:       -96.347 kW
 
       Time Step     300   November  9, 2015  10:14:16
       Pressure Iterations:      1
       Maximum Velocity Error:  0.61E-15 on Mesh   1 at (  59  59   0)
       ---------------------------------------------------------------
       CPU/step:     0.364E+01 s, Total CPU:       18.98 min
       Time step:    0.160E-02 s, Total time:       1.40 s
       Max CFL number:  0.85E+00 at ( 43, 39, 56)
       Max divergence:  0.43E+02 at ( 44, 45, 47)
       Min divergence: -0.15E+02 at ( 52, 51, 42)
       Max VN number:   0.20E+00 at ( 41, 52, 53)
       Max HRRPUV:  0.26E+05 kW/m^3
       Total Heat Release Rate:            254.463 kW
       Radiation Loss to Boundaries:       -83.870 kW
 
       Time Step     400   November  9, 2015  10:20:33
       Pressure Iterations:      1
       Maximum Velocity Error:  0.60E-15 on Mesh   1 at (  59  59   0)
       ---------------------------------------------------------------
       CPU/step:     0.374E+01 s, Total CPU:       25.21 min
       Time step:    0.158E-02 s, Total time:       1.57 s
       Max CFL number:  0.90E+00 at ( 47, 47, 67)
       Max divergence:  0.37E+02 at ( 52, 50, 56)
       Min divergence: -0.17E+02 at ( 44, 49, 69)
       Max VN number:   0.22E+00 at ( 45, 53, 76)
       Max HRRPUV:  0.20E+05 kW/m^3
       Total Heat Release Rate:            288.556 kW
       Radiation Loss to Boundaries:       -89.925 kW
 
       Time Step     500   November  9, 2015  10:26:53
       Pressure Iterations:      1
       Maximum Velocity Error:  0.61E-15 on Mesh   1 at (  59  59   0)
       ---------------------------------------------------------------
       CPU/step:     0.378E+01 s, Total CPU:       31.50 min
       Time step:    0.122E-02 s, Total time:       1.71 s
       Max CFL number:  0.89E+00 at ( 51, 44,111)
       Max divergence:  0.46E+02 at ( 39, 40,  3)
       Min divergence: -0.19E+02 at ( 49, 49,113)
       Max VN number:   0.23E+00 at ( 51, 44,110)
       Max HRRPUV:  0.24E+05 kW/m^3
       Total Heat Release Rate:            330.620 kW
       Radiation Loss to Boundaries:      -103.656 kW
 
       Time Step     600   November  9, 2015  10:33:02
       Pressure Iterations:      1
       Maximum Velocity Error:  0.61E-15 on Mesh   1 at (  59  59   0)
       ---------------------------------------------------------------
       CPU/step:     0.365E+01 s, Total CPU:       37.59 min
       Time step:    0.145E-02 s, Total time:       1.85 s
       Max CFL number:  0.93E+00 at ( 51, 50, 97)
       Max divergence:  0.48E+02 at ( 54, 51, 59)
       Min divergence: -0.14E+02 at ( 45, 51, 88)
       Max VN number:   0.22E+00 at ( 48, 35,126)
       Max HRRPUV:  0.31E+05 kW/m^3
       Total Heat Release Rate:            418.728 kW
       Radiation Loss to Boundaries:      -133.690 kW
 
       Time Step     700   November  9, 2015  10:39:20
       Pressure Iterations:      1
       Maximum Velocity Error:  0.65E-15 on Mesh   1 at (  59  59   0)
       ---------------------------------------------------------------
       CPU/step:     0.375E+01 s, Total CPU:       43.84 min
       Time step:    0.142E-02 s, Total time:       1.99 s
       Max CFL number:  0.86E+00 at ( 48, 50,111)
       Max divergence:  0.51E+02 at ( 40, 69,  2)
       Min divergence: -0.15E+02 at ( 47, 50, 95)
       Max VN number:   0.17E+00 at ( 54, 45, 97)
       Max HRRPUV:  0.26E+05 kW/m^3
       Total Heat Release Rate:            431.469 kW
       Radiation Loss to Boundaries:      -140.235 kW
 
       Time Step     800   November  9, 2015  10:45:41
       Pressure Iterations:      1
       Maximum Velocity Error:  0.65E-15 on Mesh   1 at (  59  59   0)
       ---------------------------------------------------------------
       CPU/step:     0.378E+01 s, Total CPU:       50.14 min
       Time step:    0.142E-02 s, Total time:       2.13 s
       Max CFL number:  0.91E+00 at ( 54, 46,124)
       Max divergence:  0.61E+02 at ( 43, 51, 27)
       Min divergence: -0.15E+02 at ( 58, 65,  5)
       Max VN number:   0.18E+00 at ( 47, 56,104)
       Max HRRPUV:  0.33E+05 kW/m^3
       Total Heat Release Rate:            547.492 kW
       Radiation Loss to Boundaries:      -183.672 kW
 
       Time Step     900   November  9, 2015  10:51:56
       Pressure Iterations:      1
       Maximum Velocity Error:  0.69E-15 on Mesh   1 at (  59  59   0)
       ---------------------------------------------------------------
       CPU/step:     0.372E+01 s, Total CPU:       56.34 min
       Time step:    0.115E-02 s, Total time:       2.26 s
       Max CFL number:  0.90E+00 at ( 44, 50,132)
       Max divergence:  0.66E+02 at ( 53, 44, 40)
       Min divergence: -0.18E+02 at ( 37, 48,133)
       Max VN number:   0.19E+00 at ( 38, 48,133)
       Max HRRPUV:  0.40E+05 kW/m^3
       Total Heat Release Rate:            594.498 kW
       Radiation Loss to Boundaries:      -202.295 kW
 
       Time Step    1000   November  9, 2015  10:58:09
       Pressure Iterations:      1
       Maximum Velocity Error:  0.68E-15 on Mesh   1 at (  59  59   0)
       ---------------------------------------------------------------
       CPU/step:     0.370E+01 s, Total CPU:        1.04 hr
       Time step:    0.126E-02 s, Total time:       2.38 s
       Max CFL number:  0.92E+00 at ( 48, 56,105)
       Max divergence:  0.73E+02 at ( 50, 55, 98)
       Min divergence: -0.27E+02 at ( 42, 41,141)
       Max VN number:   0.24E+00 at ( 42, 41,140)
       Max HRRPUV:  0.33E+05 kW/m^3
       Total Heat Release Rate:            659.561 kW
       Radiation Loss to Boundaries:      -222.450 kW
 
       Time Step    1100   November  9, 2015  11:04:31
       Pressure Iterations:      1
       Maximum Velocity Error:  0.68E-15 on Mesh   1 at (  44  61   0)
       ---------------------------------------------------------------
       CPU/step:     0.379E+01 s, Total CPU:        1.15 hr
       Time step:    0.113E-02 s, Total time:       2.50 s
       Max CFL number:  0.83E+00 at ( 56, 58,148)
       Max divergence:  0.72E+02 at ( 50, 42, 44)
       Min divergence: -0.16E+02 at ( 43, 71,  3)
       Max VN number:   0.17E+00 at ( 60, 44,141)
       Max HRRPUV:  0.42E+05 kW/m^3
       Total Heat Release Rate:            574.382 kW
       Radiation Loss to Boundaries:      -195.449 kW
 
       Time Step    1200   November  9, 2015  11:10:47
       Pressure Iterations:      1
       Maximum Velocity Error:  0.69E-15 on Mesh   1 at (  54  37   0)
       ---------------------------------------------------------------
       CPU/step:     0.373E+01 s, Total CPU:        1.25 hr
       Time step:    0.111E-02 s, Total time:       2.62 s
       Max CFL number:  0.85E+00 at ( 54, 48,142)
       Max divergence:  0.57E+02 at ( 57, 41,148)
       Min divergence: -0.14E+02 at ( 51, 32,  4)
       Max VN number:   0.19E+00 at ( 46, 53,138)
       Max HRRPUV:  0.35E+05 kW/m^3
       Total Heat Release Rate:            531.545 kW
       Radiation Loss to Boundaries:      -177.101 kW
 
       Time Step    1300   November  9, 2015  11:16:59
       Pressure Iterations:      1
       Maximum Velocity Error:  0.74E-15 on Mesh   1 at (  59  59   0)
       ---------------------------------------------------------------
       CPU/step:     0.368E+01 s, Total CPU:        1.35 hr
       Time step:    0.147E-02 s, Total time:       2.74 s
       Max CFL number:  0.91E+00 at ( 44, 49, 91)
       Max divergence:  0.69E+02 at ( 58, 52, 79)
       Min divergence: -0.22E+02 at ( 53, 48, 83)
       Max VN number:   0.20E+00 at ( 57, 48,123)
       Max HRRPUV:  0.36E+05 kW/m^3
       Total Heat Release Rate:            549.433 kW
       Radiation Loss to Boundaries:      -187.242 kW
 
       Time Step    1400   November  9, 2015  11:23:08
       Pressure Iterations:      1
       Maximum Velocity Error:  0.74E-15 on Mesh   1 at (  54  37   0)
       ---------------------------------------------------------------
       CPU/step:     0.366E+01 s, Total CPU:        1.45 hr
       Time step:    0.129E-02 s, Total time:       2.87 s
       Max CFL number:  0.88E+00 at ( 43, 49,121)
       Max divergence:  0.43E+02 at ( 32, 63,  2)
       Min divergence: -0.21E+02 at ( 46, 56, 79)
       Max VN number:   0.19E+00 at ( 35, 49,129)
       Max HRRPUV:  0.22E+05 kW/m^3
       Total Heat Release Rate:            477.666 kW
       Radiation Loss to Boundaries:      -164.647 kW
 
       Time Step    1500   November  9, 2015  11:29:18
       Pressure Iterations:      1
       Maximum Velocity Error:  0.77E-15 on Mesh   1 at (  54  37   0)
       ---------------------------------------------------------------
       CPU/step:     0.367E+01 s, Total CPU:        1.56 hr
       Time step:    0.141E-02 s, Total time:       3.00 s
       Max CFL number:  0.89E+00 at ( 46, 43,128)
       Max divergence:  0.52E+02 at ( 48, 48, 56)
       Min divergence: -0.15E+02 at ( 47, 39,101)
       Max VN number:   0.20E+00 at ( 56, 54,131)
       Max HRRPUV:  0.25E+05 kW/m^3
       Total Heat Release Rate:            503.238 kW
       Radiation Loss to Boundaries:      -173.303 kW
 
       Time Step    1600   November  9, 2015  11:35:32
       Pressure Iterations:      1
       Maximum Velocity Error:  0.74E-15 on Mesh   1 at (  59  59   0)
       ---------------------------------------------------------------
       CPU/step:     0.371E+01 s, Total CPU:        1.66 hr
       Time step:    0.127E-02 s, Total time:       3.14 s
       Max CFL number:  0.92E+00 at ( 50, 54,115)
       Max divergence:  0.50E+02 at ( 55, 50, 90)
       Min divergence: -0.18E+02 at ( 56, 53, 96)
       Max VN number:   0.19E+00 at ( 40, 58,123)
       Max HRRPUV:  0.28E+05 kW/m^3
       Total Heat Release Rate:            511.445 kW
       Radiation Loss to Boundaries:      -172.651 kW
 
       Time Step    1700   November  9, 2015  11:41:41
       Pressure Iterations:      1
       Maximum Velocity Error:  0.74E-15 on Mesh   1 at (  59  59   0)
       ---------------------------------------------------------------
       CPU/step:     0.367E+01 s, Total CPU:        1.76 hr
       Time step:    0.127E-02 s, Total time:       3.27 s
       Max CFL number:  0.90E+00 at ( 54, 52,116)
       Max divergence:  0.48E+02 at ( 48, 62,  2)
       Min divergence: -0.15E+02 at ( 66, 59,  6)
       Max VN number:   0.18E+00 at ( 54, 39,121)
       Max HRRPUV:  0.25E+05 kW/m^3
       Total Heat Release Rate:            518.819 kW
       Radiation Loss to Boundaries:      -178.216 kW
 
       Time Step    1800   November  9, 2015  11:47:52
       Pressure Iterations:      1
       Maximum Velocity Error:  0.76E-15 on Mesh   1 at (  59  59   0)
       ---------------------------------------------------------------
       CPU/step:     0.367E+01 s, Total CPU:        1.86 hr
       Time step:    0.123E-02 s, Total time:       3.40 s
       Max CFL number:  0.81E+00 at ( 59, 37,117)
       Max divergence:  0.53E+02 at ( 63, 52,  1)
       Min divergence: -0.23E+02 at ( 59, 37,118)
       Max VN number:   0.25E+00 at ( 59, 37,117)
       Max HRRPUV:  0.25E+05 kW/m^3
       Total Heat Release Rate:            466.868 kW
       Radiation Loss to Boundaries:      -166.342 kW
 
       Time Step    1900   November  9, 2015  11:54:03
       Pressure Iterations:      1
       Maximum Velocity Error:  0.74E-15 on Mesh   1 at (  59  59   0)
       ---------------------------------------------------------------
       CPU/step:     0.369E+01 s, Total CPU:        1.97 hr
       Time step:    0.135E-02 s, Total time:       3.53 s
       Max CFL number:  0.87E+00 at ( 40, 47,110)
       Max divergence:  0.60E+02 at ( 44, 52, 64)
       Min divergence: -0.20E+02 at ( 49, 45, 80)
       Max VN number:   0.18E+00 at ( 46, 43,120)
       Max HRRPUV:  0.33E+05 kW/m^3
       Total Heat Release Rate:            492.795 kW
       Radiation Loss to Boundaries:      -172.457 kW
 
       Time Step    2000   November  9, 2015  12:00:14
       Pressure Iterations:      1
       Maximum Velocity Error:  0.73E-15 on Mesh   1 at (  53  41   0)
       ---------------------------------------------------------------
       CPU/step:     0.368E+01 s, Total CPU:        2.07 hr
       Time step:    0.132E-02 s, Total time:       3.67 s
       Max CFL number:  0.91E+00 at ( 48, 55,117)
       Max divergence:  0.56E+02 at ( 44, 45,  7)
       Min divergence: -0.15E+02 at ( 41, 42, 21)
       Max VN number:   0.19E+00 at ( 50, 42, 79)
       Max HRRPUV:  0.24E+05 kW/m^3
       Total Heat Release Rate:            507.495 kW
       Radiation Loss to Boundaries:      -171.078 kW
 
       Time Step    2100   November  9, 2015  12:06:26
       Pressure Iterations:      1
       Maximum Velocity Error:  0.72E-15 on Mesh   1 at (  59  59   0)
       ---------------------------------------------------------------
       CPU/step:     0.368E+01 s, Total CPU:        2.17 hr
       Time step:    0.118E-02 s, Total time:       3.79 s
       Max CFL number:  0.88E+00 at ( 44, 50,135)
       Max divergence:  0.46E+02 at ( 45, 49, 67)
       Min divergence: -0.16E+02 at ( 71, 30,  5)
       Max VN number:   0.15E+00 at ( 47, 47,120)
       Max HRRPUV:  0.27E+05 kW/m^3
       Total Heat Release Rate:            489.527 kW
       Radiation Loss to Boundaries:      -171.313 kW
 
       Time Step    2200   November  9, 2015  12:12:36
       Pressure Iterations:      1
       Maximum Velocity Error:  0.75E-15 on Mesh   1 at (  59  59   0)
       ---------------------------------------------------------------
       CPU/step:     0.368E+01 s, Total CPU:        2.27 hr
       Time step:    0.143E-02 s, Total time:       3.93 s
       Max CFL number:  0.92E+00 at ( 51, 41,112)
       Max divergence:  0.63E+02 at ( 45, 56, 73)
       Min divergence: -0.15E+02 at ( 40, 67,  5)
       Max VN number:   0.18E+00 at ( 47, 58, 73)
       Max HRRPUV:  0.35E+05 kW/m^3
       Total Heat Release Rate:            461.872 kW
       Radiation Loss to Boundaries:      -159.053 kW
 
       Time Step    2300   November  9, 2015  12:18:49
       Pressure Iterations:      1
       Maximum Velocity Error:  0.76E-15 on Mesh   1 at (  56  50   0)
       ---------------------------------------------------------------
       CPU/step:     0.370E+01 s, Total CPU:        2.38 hr
       Time step:    0.128E-02 s, Total time:       4.06 s
       Max CFL number:  0.86E+00 at ( 54, 57,105)
       Max divergence:  0.55E+02 at ( 50, 46,  2)
       Min divergence: -0.15E+02 at ( 55, 67,108)
       Max VN number:   0.16E+00 at ( 52, 42, 84)
       Max HRRPUV:  0.29E+05 kW/m^3
       Total Heat Release Rate:            494.563 kW
       Radiation Loss to Boundaries:      -170.577 kW
 
       Time Step    2400   November  9, 2015  12:25:01
       Pressure Iterations:      1
       Maximum Velocity Error:  0.82E-15 on Mesh   1 at (  51  56   0)
       ---------------------------------------------------------------
       CPU/step:     0.369E+01 s, Total CPU:        2.48 hr
       Time step:    0.128E-02 s, Total time:       4.19 s
       Max CFL number:  0.82E+00 at ( 46, 51, 92)
       Max divergence:  0.46E+02 at ( 49, 52, 90)
       Min divergence: -0.20E+02 at ( 69, 31,  6)
       Max VN number:   0.17E+00 at ( 38, 48,108)
       Max HRRPUV:  0.26E+05 kW/m^3
       Total Heat Release Rate:            524.427 kW
       Radiation Loss to Boundaries:      -184.280 kW
 
       Time Step    2500   November  9, 2015  12:31:15
       Pressure Iterations:      1
       Maximum Velocity Error:  0.88E-15 on Mesh   1 at (  51  56   0)
       ---------------------------------------------------------------
       CPU/step:     0.372E+01 s, Total CPU:        2.58 hr
       Time step:    0.125E-02 s, Total time:       4.32 s
       Max CFL number:  0.88E+00 at ( 42, 48,146)
       Max divergence:  0.60E+02 at ( 52, 51,117)
       Min divergence: -0.17E+02 at ( 53, 54,131)
       Max VN number:   0.19E+00 at ( 51, 59, 91)
       Max HRRPUV:  0.32E+05 kW/m^3
       Total Heat Release Rate:            546.563 kW
       Radiation Loss to Boundaries:      -183.565 kW
 
       Time Step    2600   November  9, 2015  12:37:25
       Pressure Iterations:      1
       Maximum Velocity Error:  0.99E-15 on Mesh   1 at (  51  56   0)
       ---------------------------------------------------------------
       CPU/step:     0.366E+01 s, Total CPU:        2.68 hr
       Time step:    0.137E-02 s, Total time:       4.44 s
       Max CFL number:  0.90E+00 at ( 52, 53,142)
       Max divergence:  0.54E+02 at ( 52, 52, 62)
       Min divergence: -0.20E+02 at ( 48, 57,145)
       Max VN number:   0.22E+00 at ( 53, 38, 99)
       Max HRRPUV:  0.28E+05 kW/m^3
       Total Heat Release Rate:            519.246 kW
       Radiation Loss to Boundaries:      -183.183 kW
 
       Time Step    2700   November  9, 2015  12:43:34
       Pressure Iterations:      1
       Maximum Velocity Error:  0.10E-14 on Mesh   1 at (  51  56   0)
       ---------------------------------------------------------------
       CPU/step:     0.366E+01 s, Total CPU:        2.78 hr
       Time step:    0.129E-02 s, Total time:       4.57 s
       Max CFL number:  0.86E+00 at ( 55, 55,120)
       Max divergence:  0.48E+02 at ( 57, 45,  2)
       Min divergence: -0.15E+02 at ( 57, 44, 90)
       Max VN number:   0.18E+00 at ( 57, 44, 89)
       Max HRRPUV:  0.27E+05 kW/m^3
       Total Heat Release Rate:            510.416 kW
       Radiation Loss to Boundaries:      -180.493 kW
 
       Time Step    2800   November  9, 2015  12:49:43
       Pressure Iterations:      1
       Maximum Velocity Error:  0.10E-14 on Mesh   1 at (  51  56   0)
       ---------------------------------------------------------------
       CPU/step:     0.366E+01 s, Total CPU:        2.89 hr
       Time step:    0.129E-02 s, Total time:       4.70 s
       Max CFL number:  0.87E+00 at ( 50, 49,105)
       Max divergence:  0.47E+02 at ( 38, 61,  6)
       Min divergence: -0.17E+02 at ( 32, 71,  5)
       Max VN number:   0.16E+00 at ( 60, 45,119)
       Max HRRPUV:  0.23E+05 kW/m^3
       Total Heat Release Rate:            532.149 kW
       Radiation Loss to Boundaries:      -183.850 kW
 
       Time Step    2900   November  9, 2015  12:55:51
       Pressure Iterations:      1
       Maximum Velocity Error:  0.10E-14 on Mesh   1 at (  51  56   0)
       ---------------------------------------------------------------
       CPU/step:     0.365E+01 s, Total CPU:        2.99 hr
       Time step:    0.128E-02 s, Total time:       4.83 s
       Max CFL number:  0.92E+00 at ( 54, 59,141)
       Max divergence:  0.54E+02 at ( 66, 54,  2)
       Min divergence: -0.20E+02 at ( 54, 59,142)
       Max VN number:   0.22E+00 at ( 54, 59,141)
       Max HRRPUV:  0.29E+05 kW/m^3
       Total Heat Release Rate:            504.936 kW
       Radiation Loss to Boundaries:      -180.670 kW
 
       Time Step    3000   November  9, 2015  13:01:59
       Pressure Iterations:      1
       Maximum Velocity Error:  0.10E-14 on Mesh   1 at (  51  56   0)
       ---------------------------------------------------------------
       CPU/step:     0.365E+01 s, Total CPU:        3.09 hr
       Time step:    0.126E-02 s, Total time:       4.97 s
       Max CFL number:  0.85E+00 at ( 46, 58,139)
       Max divergence:  0.50E+02 at ( 54, 58, 53)
       Min divergence: -0.17E+02 at ( 48, 69,  5)
       Max VN number:   0.19E+00 at ( 47, 42,105)
       Max HRRPUV:  0.22E+05 kW/m^3
       Total Heat Release Rate:            453.672 kW
       Radiation Loss to Boundaries:      -161.391 kW
 
       Time Step    3100   November  9, 2015  13:08:07
       Pressure Iterations:      1
       Maximum Velocity Error:  0.10E-14 on Mesh   1 at (  51  56   0)
       ---------------------------------------------------------------
       CPU/step:     0.365E+01 s, Total CPU:        3.19 hr
       Time step:    0.139E-02 s, Total time:       5.10 s
       Max CFL number:  0.86E+00 at ( 51, 54, 88)
       Max divergence:  0.65E+02 at ( 53, 58, 99)
       Min divergence: -0.17E+02 at ( 41, 57,106)
       Max VN number:   0.18E+00 at ( 51, 58,102)
       Max HRRPUV:  0.35E+05 kW/m^3
       Total Heat Release Rate:            501.954 kW
       Radiation Loss to Boundaries:      -173.324 kW
 
       Time Step    3200   November  9, 2015  13:14:17
       Pressure Iterations:      1
       Maximum Velocity Error:  0.10E-14 on Mesh   1 at (  51  56   0)
       ---------------------------------------------------------------
       CPU/step:     0.366E+01 s, Total CPU:        3.29 hr
       Time step:    0.120E-02 s, Total time:       5.23 s
       Max CFL number:  0.93E+00 at ( 52, 54,118)
       Max divergence:  0.48E+02 at ( 42, 48, 88)
       Min divergence: -0.21E+02 at ( 58, 47,136)
       Max VN number:   0.20E+00 at ( 58, 47,135)
       Max HRRPUV:  0.30E+05 kW/m^3
       Total Heat Release Rate:            480.229 kW
       Radiation Loss to Boundaries:      -173.270 kW
 
       Time Step    3300   November  9, 2015  13:20:24
       Pressure Iterations:      1
       Maximum Velocity Error:  0.10E-14 on Mesh   1 at (  51  56   0)
       ---------------------------------------------------------------
       CPU/step:     0.364E+01 s, Total CPU:        3.39 hr
       Time step:    0.132E-02 s, Total time:       5.35 s
       Max CFL number:  0.93E+00 at ( 48, 41,149)
       Max divergence:  0.43E+02 at ( 55, 65,  2)
       Min divergence: -0.14E+02 at ( 47, 41,149)
       Max VN number:   0.19E+00 at ( 45, 62,107)
       Max HRRPUV:  0.21E+05 kW/m^3
       Total Heat Release Rate:            427.759 kW
       Radiation Loss to Boundaries:      -151.780 kW
 
       Time Step    3400   November  9, 2015  13:26:32
       Pressure Iterations:      1
       Maximum Velocity Error:  0.10E-14 on Mesh   1 at (  51  56   0)
       ---------------------------------------------------------------
       CPU/step:     0.365E+01 s, Total CPU:        3.50 hr
       Time step:    0.119E-02 s, Total time:       5.48 s
       Max CFL number:  0.90E+00 at ( 51, 58,134)
       Max divergence:  0.59E+02 at ( 49, 49,121)
       Min divergence: -0.14E+02 at ( 41, 64,147)
       Max VN number:   0.15E+00 at ( 46, 64,147)
       Max HRRPUV:  0.30E+05 kW/m^3
       Total Heat Release Rate:            484.264 kW
       Radiation Loss to Boundaries:      -167.101 kW
 
       Time Step    3500   November  9, 2015  13:32:41
       Pressure Iterations:      1
       Maximum Velocity Error:  0.11E-14 on Mesh   1 at (  51  56   0)
       ---------------------------------------------------------------
       CPU/step:     0.366E+01 s, Total CPU:        3.60 hr
       Time step:    0.138E-02 s, Total time:       5.60 s
       Max CFL number:  0.87E+00 at ( 52, 52, 82)
       Max divergence:  0.53E+02 at ( 46, 54, 96)
       Min divergence: -0.17E+02 at ( 49, 41,124)
       Max VN number:   0.18E+00 at ( 44, 60, 94)
       Max HRRPUV:  0.29E+05 kW/m^3
       Total Heat Release Rate:            526.843 kW
       Radiation Loss to Boundaries:      -182.763 kW
 
       Time Step    3600   November  9, 2015  13:38:49
       Pressure Iterations:      1
       Maximum Velocity Error:  0.12E-14 on Mesh   1 at (  51  56   0)
       ---------------------------------------------------------------
       CPU/step:     0.365E+01 s, Total CPU:        3.70 hr
       Time step:    0.122E-02 s, Total time:       5.73 s
       Max CFL number:  0.89E+00 at ( 52, 58,119)
       Max divergence:  0.60E+02 at ( 55, 47, 85)
       Min divergence: -0.20E+02 at ( 50, 62,124)
       Max VN number:   0.22E+00 at ( 57, 56,128)
       Max HRRPUV:  0.30E+05 kW/m^3
       Total Heat Release Rate:            507.130 kW
       Radiation Loss to Boundaries:      -180.597 kW
 
       Time Step    3700   November  9, 2015  13:44:58
       Pressure Iterations:      1
       Maximum Velocity Error:  0.12E-14 on Mesh   1 at (  34  41   0)
       ---------------------------------------------------------------
       CPU/step:     0.366E+01 s, Total CPU:        3.80 hr
       Time step:    0.134E-02 s, Total time:       5.85 s
       Max CFL number:  0.96E+00 at ( 50, 48,125)
       Max divergence:  0.41E+02 at ( 46, 52,104)
       Min divergence: -0.20E+02 at ( 52, 47,127)
       Max VN number:   0.23E+00 at ( 50, 47,126)
       Max HRRPUV:  0.23E+05 kW/m^3
       Total Heat Release Rate:            500.176 kW
       Radiation Loss to Boundaries:      -172.057 kW
 
       Time Step    3800   November  9, 2015  13:51:07
       Pressure Iterations:      1
       Maximum Velocity Error:  0.11E-14 on Mesh   1 at (  34  41   0)
       ---------------------------------------------------------------
       CPU/step:     0.366E+01 s, Total CPU:        3.90 hr
       Time step:    0.133E-02 s, Total time:       5.99 s
       Max CFL number:  0.88E+00 at ( 52, 49,138)
       Max divergence:  0.72E+02 at ( 52, 56, 61)
       Min divergence: -0.17E+02 at ( 40, 33,  5)
       Max VN number:   0.18E+00 at ( 54, 49,140)
       Max HRRPUV:  0.36E+05 kW/m^3
       Total Heat Release Rate:            515.679 kW
       Radiation Loss to Boundaries:      -185.146 kW
 
       Time Step    3900   November  9, 2015  13:57:13
       Pressure Iterations:      1
       Maximum Velocity Error:  0.11E-14 on Mesh   1 at (  34  41   0)
       ---------------------------------------------------------------
       CPU/step:     0.364E+01 s, Total CPU:        4.00 hr
       Time step:    0.133E-02 s, Total time:       6.12 s
       Max CFL number:  0.91E+00 at ( 49, 56,104)
       Max divergence:  0.44E+02 at ( 57, 60,115)
       Min divergence: -0.17E+02 at ( 36, 54,133)
       Max VN number:   0.23E+00 at ( 55, 49,110)
       Max HRRPUV:  0.30E+05 kW/m^3
       Total Heat Release Rate:            489.072 kW
       Radiation Loss to Boundaries:      -169.782 kW
 
       Time Step    4000   November  9, 2015  14:03:24
       Pressure Iterations:      1
       Maximum Velocity Error:  0.12E-14 on Mesh   1 at (  44  61   0)
       ---------------------------------------------------------------
       CPU/step:     0.368E+01 s, Total CPU:        4.10 hr
       Time step:    0.129E-02 s, Total time:       6.25 s
       Max CFL number:  0.93E+00 at ( 50, 55, 82)
       Max divergence:  0.54E+02 at ( 50, 55, 82)
       Min divergence: -0.18E+02 at ( 54, 33,  5)
       Max VN number:   0.19E+00 at ( 30, 66,146)
       Max HRRPUV:  0.32E+05 kW/m^3
       Total Heat Release Rate:            534.980 kW
       Radiation Loss to Boundaries:      -182.574 kW
 
       Time Step    4100   November  9, 2015  14:09:31
       Pressure Iterations:      1
       Maximum Velocity Error:  0.12E-14 on Mesh   1 at (  57  60   0)
       ---------------------------------------------------------------
       CPU/step:     0.364E+01 s, Total CPU:        4.21 hr
       Time step:    0.142E-02 s, Total time:       6.38 s
       Max CFL number:  0.92E+00 at ( 49, 54, 86)
       Max divergence:  0.49E+02 at ( 61, 47, 74)
       Min divergence: -0.17E+02 at ( 48, 58, 89)
       Max VN number:   0.21E+00 at ( 53, 56,125)
       Max HRRPUV:  0.26E+05 kW/m^3
       Total Heat Release Rate:            497.776 kW
       Radiation Loss to Boundaries:      -174.191 kW
 
       Time Step    4200   November  9, 2015  14:15:39
       Pressure Iterations:      1
       Maximum Velocity Error:  0.12E-14 on Mesh   1 at (  34  41   0)
       ---------------------------------------------------------------
       CPU/step:     0.364E+01 s, Total CPU:        4.31 hr
       Time step:    0.142E-02 s, Total time:       6.52 s
       Max CFL number:  0.87E+00 at ( 58, 50,116)
       Max divergence:  0.59E+02 at ( 44, 50, 69)
       Min divergence: -0.18E+02 at ( 45, 54, 64)
       Max VN number:   0.19E+00 at ( 45, 61, 73)
       Max HRRPUV:  0.34E+05 kW/m^3
       Total Heat Release Rate:            505.698 kW
       Radiation Loss to Boundaries:      -175.847 kW
 
       Time Step    4300   November  9, 2015  14:21:50
       Pressure Iterations:      1
       Maximum Velocity Error:  0.12E-14 on Mesh   1 at (  34  41   0)
       ---------------------------------------------------------------
       CPU/step:     0.368E+01 s, Total CPU:        4.41 hr
       Time step:    0.128E-02 s, Total time:       6.66 s
       Max CFL number:  0.89E+00 at ( 49, 54, 97)
       Max divergence:  0.48E+02 at ( 53, 48, 66)
       Min divergence: -0.14E+02 at ( 36, 61, 15)
       Max VN number:   0.15E+00 at ( 56, 56,104)
       Max HRRPUV:  0.25E+05 kW/m^3
       Total Heat Release Rate:            496.342 kW
       Radiation Loss to Boundaries:      -177.610 kW
 
       Time Step    4400   November  9, 2015  14:27:59
       Pressure Iterations:      1
       Maximum Velocity Error:  0.13E-14 on Mesh   1 at (  34  41   0)
       ---------------------------------------------------------------
       CPU/step:     0.366E+01 s, Total CPU:        4.51 hr
       Time step:    0.124E-02 s, Total time:       6.79 s
       Max CFL number:  0.89E+00 at ( 45, 49,116)
       Max divergence:  0.47E+02 at ( 37, 32,  2)
       Min divergence: -0.16E+02 at ( 40, 55, 11)
       Max VN number:   0.22E+00 at ( 45, 57,141)
       Max HRRPUV:  0.23E+05 kW/m^3
       Total Heat Release Rate:            467.005 kW
       Radiation Loss to Boundaries:      -166.428 kW
 
       Time Step    4500   November  9, 2015  14:34:07
       Pressure Iterations:      1
       Maximum Velocity Error:  0.14E-14 on Mesh   1 at (  34  41   0)
       ---------------------------------------------------------------
       CPU/step:     0.365E+01 s, Total CPU:        4.61 hr
       Time step:    0.136E-02 s, Total time:       6.91 s
       Max CFL number:  0.93E+00 at ( 48, 44,139)
       Max divergence:  0.53E+02 at ( 47, 54, 84)
       Min divergence: -0.19E+02 at ( 32, 69,  6)
       Max VN number:   0.19E+00 at ( 42, 52,100)
       Max HRRPUV:  0.27E+05 kW/m^3
       Total Heat Release Rate:            475.745 kW
       Radiation Loss to Boundaries:      -169.703 kW
 
       Time Step    4600   November  9, 2015  14:40:14
       Pressure Iterations:      1
       Maximum Velocity Error:  0.14E-14 on Mesh   1 at (  34  41   0)
       ---------------------------------------------------------------
       CPU/step:     0.365E+01 s, Total CPU:        4.71 hr
       Time step:    0.136E-02 s, Total time:       7.05 s
       Max CFL number:  0.91E+00 at ( 52, 48,108)
       Max divergence:  0.51E+02 at ( 50, 57,119)
       Min divergence: -0.18E+02 at ( 44, 49,115)
       Max VN number:   0.22E+00 at ( 52, 48,108)
       Max HRRPUV:  0.29E+05 kW/m^3
       Total Heat Release Rate:            534.138 kW
       Radiation Loss to Boundaries:      -187.224 kW
 
       Time Step    4700   November  9, 2015  14:46:23
       Pressure Iterations:      1
       Maximum Velocity Error:  0.14E-14 on Mesh   1 at (  34  41   0)
       ---------------------------------------------------------------
       CPU/step:     0.366E+01 s, Total CPU:        4.82 hr
       Time step:    0.133E-02 s, Total time:       7.17 s
       Max CFL number:  0.89E+00 at ( 51, 46,145)
       Max divergence:  0.40E+02 at ( 64, 39,  1)
       Min divergence: -0.17E+02 at ( 34, 57,111)
       Max VN number:   0.19E+00 at ( 33, 57,109)
       Max HRRPUV:  0.21E+05 kW/m^3
       Total Heat Release Rate:            504.945 kW
       Radiation Loss to Boundaries:      -176.752 kW
 
       Time Step    4800   November  9, 2015  14:52:30
       Pressure Iterations:      1
       Maximum Velocity Error:  0.14E-14 on Mesh   1 at (  34  41   0)
       ---------------------------------------------------------------
       CPU/step:     0.364E+01 s, Total CPU:        4.92 hr
       Time step:    0.133E-02 s, Total time:       7.31 s
       Max CFL number:  0.89E+00 at ( 55, 51,123)
       Max divergence:  0.41E+02 at ( 39, 61,  2)
       Min divergence: -0.16E+02 at ( 47, 44,133)
       Max VN number:   0.18E+00 at ( 58, 50,124)
       Max HRRPUV:  0.21E+05 kW/m^3
       Total Heat Release Rate:            464.620 kW
       Radiation Loss to Boundaries:      -162.129 kW
 
       Time Step    4900   November  9, 2015  14:58:37
       Pressure Iterations:      1
       Maximum Velocity Error:  0.14E-14 on Mesh   1 at (  40  46   0)
       ---------------------------------------------------------------
       CPU/step:     0.365E+01 s, Total CPU:        5.02 hr
       Time step:    0.133E-02 s, Total time:       7.44 s
       Max CFL number:  0.82E+00 at ( 54, 42,127)
       Max divergence:  0.50E+02 at ( 46, 69,  2)
       Min divergence: -0.18E+02 at ( 52, 62,116)
       Max VN number:   0.20E+00 at ( 52, 62,115)
       Max HRRPUV:  0.24E+05 kW/m^3
       Total Heat Release Rate:            510.190 kW
       Radiation Loss to Boundaries:      -176.640 kW
 
       Time Step    5000   November  9, 2015  15:04:45
       Pressure Iterations:      1
       Maximum Velocity Error:  0.15E-14 on Mesh   1 at (  34  41   0)
       ---------------------------------------------------------------
       CPU/step:     0.365E+01 s, Total CPU:        5.12 hr
       Time step:    0.133E-02 s, Total time:       7.57 s
       Max CFL number:  0.91E+00 at ( 45, 56,129)
       Max divergence:  0.51E+02 at ( 54, 48, 89)
       Min divergence: -0.16E+02 at ( 51, 43,117)
       Max VN number:   0.26E+00 at ( 50, 59,134)
       Max HRRPUV:  0.25E+05 kW/m^3
       Total Heat Release Rate:            473.983 kW
       Radiation Loss to Boundaries:      -169.021 kW
 
       Time Step    5100   November  9, 2015  15:10:53
       Pressure Iterations:      1
       Maximum Velocity Error:  0.15E-14 on Mesh   1 at (  34  41   0)
       ---------------------------------------------------------------
       CPU/step:     0.364E+01 s, Total CPU:        5.22 hr
       Time step:    0.133E-02 s, Total time:       7.71 s
       Max CFL number:  0.90E+00 at ( 46, 54,118)
       Max divergence:  0.47E+02 at ( 34, 64,  3)
       Min divergence: -0.23E+02 at ( 54, 41,139)
       Max VN number:   0.17E+00 at ( 60, 50, 89)
       Max HRRPUV:  0.24E+05 kW/m^3
       Total Heat Release Rate:            487.591 kW
       Radiation Loss to Boundaries:      -176.139 kW
 
       Time Step    5200   November  9, 2015  15:17:00
       Pressure Iterations:      1
       Maximum Velocity Error:  0.15E-14 on Mesh   1 at (  40  46   0)
       ---------------------------------------------------------------
       CPU/step:     0.365E+01 s, Total CPU:        5.32 hr
       Time step:    0.133E-02 s, Total time:       7.84 s
       Max CFL number:  0.94E+00 at ( 51, 45,123)
       Max divergence:  0.42E+02 at ( 59, 45,  9)
       Min divergence: -0.18E+02 at ( 55, 43,134)
       Max VN number:   0.20E+00 at ( 51, 39,120)
       Max HRRPUV:  0.22E+05 kW/m^3
       Total Heat Release Rate:            487.808 kW
       Radiation Loss to Boundaries:      -171.417 kW
 
       Time Step    5300   November  9, 2015  15:23:07
       Pressure Iterations:      1
       Maximum Velocity Error:  0.15E-14 on Mesh   1 at (  34  41   0)
       ---------------------------------------------------------------
       CPU/step:     0.364E+01 s, Total CPU:        5.42 hr
       Time step:    0.118E-02 s, Total time:       7.96 s
       Max CFL number:  0.83E+00 at ( 54, 45,150)
       Max divergence:  0.50E+02 at ( 38, 63,  3)
       Min divergence: -0.15E+02 at ( 70, 69,  5)
       Max VN number:   0.15E+00 at ( 56, 45,146)
       Max HRRPUV:  0.23E+05 kW/m^3
       Total Heat Release Rate:            496.771 kW
       Radiation Loss to Boundaries:      -169.876 kW
 
       Time Step    5400   November  9, 2015  15:29:13
       Pressure Iterations:      1
       Maximum Velocity Error:  0.16E-14 on Mesh   1 at (  34  41   0)
       ---------------------------------------------------------------
       CPU/step:     0.363E+01 s, Total CPU:        5.52 hr
       Time step:    0.143E-02 s, Total time:       8.09 s
       Max CFL number:  0.89E+00 at ( 50, 56,101)
       Max divergence:  0.53E+02 at ( 51, 50, 80)
       Min divergence: -0.23E+02 at ( 50, 56,103)
       Max VN number:   0.21E+00 at ( 50, 56,102)
       Max HRRPUV:  0.25E+05 kW/m^3
       Total Heat Release Rate:            557.341 kW
       Radiation Loss to Boundaries:      -197.755 kW
 
       Time Step    5500   November  9, 2015  15:35:23
       Pressure Iterations:      1
       Maximum Velocity Error:  0.16E-14 on Mesh   1 at (  34  41   0)
       ---------------------------------------------------------------
       CPU/step:     0.367E+01 s, Total CPU:        5.63 hr
       Time step:    0.125E-02 s, Total time:       8.23 s
       Max CFL number:  0.85E+00 at ( 51, 47,109)
       Max divergence:  0.49E+02 at ( 49, 49,102)
       Min divergence: -0.15E+02 at ( 56, 66,  6)
       Max VN number:   0.18E+00 at ( 53, 46,119)
       Max HRRPUV:  0.26E+05 kW/m^3
       Total Heat Release Rate:            502.764 kW
       Radiation Loss to Boundaries:      -180.636 kW
 
       Time Step    5600   November  9, 2015  15:41:31
       Pressure Iterations:      1
       Maximum Velocity Error:  0.18E-14 on Mesh   1 at (  34  41   0)
       ---------------------------------------------------------------
       CPU/step:     0.365E+01 s, Total CPU:        5.73 hr
       Time step:    0.125E-02 s, Total time:       8.35 s
       Max CFL number:  0.92E+00 at ( 52, 51,145)
       Max divergence:  0.51E+02 at ( 45, 51, 87)
       Min divergence: -0.21E+02 at ( 56, 46, 88)
       Max VN number:   0.18E+00 at ( 52, 51,144)
       Max HRRPUV:  0.25E+05 kW/m^3
       Total Heat Release Rate:            478.096 kW
       Radiation Loss to Boundaries:      -169.953 kW
 
       Time Step    5700   November  9, 2015  15:47:39
       Pressure Iterations:      1
       Maximum Velocity Error:  0.18E-14 on Mesh   1 at (  34  41   0)
       ---------------------------------------------------------------
       CPU/step:     0.365E+01 s, Total CPU:        5.83 hr
       Time step:    0.134E-02 s, Total time:       8.48 s
       Max CFL number:  0.89E+00 at ( 49, 48,124)
       Max divergence:  0.55E+02 at ( 47, 49, 79)
       Min divergence: -0.18E+02 at ( 50, 45, 98)
       Max VN number:   0.19E+00 at ( 65, 44,141)
       Max HRRPUV:  0.26E+05 kW/m^3
       Total Heat Release Rate:            542.820 kW
       Radiation Loss to Boundaries:      -189.054 kW
 
       Time Step    5800   November  9, 2015  15:53:47
       Pressure Iterations:      1
       Maximum Velocity Error:  0.19E-14 on Mesh   1 at (  34  41   0)
       ---------------------------------------------------------------
       CPU/step:     0.365E+01 s, Total CPU:        5.93 hr
       Time step:    0.117E-02 s, Total time:       8.61 s
       Max CFL number:  0.88E+00 at ( 48, 56,135)
       Max divergence:  0.46E+02 at ( 58, 56, 59)
       Min divergence: -0.19E+02 at ( 37, 47,  5)
       Max VN number:   0.19E+00 at ( 59, 66,133)
       Max HRRPUV:  0.28E+05 kW/m^3
       Total Heat Release Rate:            509.533 kW
       Radiation Loss to Boundaries:      -180.273 kW
 
       Time Step    5900   November  9, 2015  15:59:54
       Pressure Iterations:      1
       Maximum Velocity Error:  0.20E-14 on Mesh   1 at (  34  41   0)
       ---------------------------------------------------------------
       CPU/step:     0.364E+01 s, Total CPU:        6.03 hr
       Time step:    0.141E-02 s, Total time:       8.73 s
       Max CFL number:  0.88E+00 at ( 43, 55,132)
       Max divergence:  0.43E+02 at ( 66, 38,  2)
       Min divergence: -0.22E+02 at ( 51, 46, 93)
       Max VN number:   0.22E+00 at ( 51, 46, 92)
       Max HRRPUV:  0.21E+05 kW/m^3
       Total Heat Release Rate:            477.725 kW
       Radiation Loss to Boundaries:      -167.969 kW
 
       Time Step    6000   November  9, 2015  16:06:02
       Pressure Iterations:      1
       Maximum Velocity Error:  0.20E-14 on Mesh   1 at (  34  41   0)
       ---------------------------------------------------------------
       CPU/step:     0.365E+01 s, Total CPU:        6.13 hr
       Time step:    0.127E-02 s, Total time:       8.87 s
       Max CFL number:  0.88E+00 at ( 53, 54,109)
       Max divergence:  0.79E+02 at ( 39, 51, 84)
       Min divergence: -0.17E+02 at ( 50, 39,  4)
       Max VN number:   0.18E+00 at ( 44, 53,121)
       Max HRRPUV:  0.47E+05 kW/m^3
       Total Heat Release Rate:            522.787 kW
       Radiation Loss to Boundaries:      -187.134 kW
 
       Time Step    6100   November  9, 2015  16:12:10
       Pressure Iterations:      1
       Maximum Velocity Error:  0.20E-14 on Mesh   1 at (  34  41   0)
       ---------------------------------------------------------------
       CPU/step:     0.365E+01 s, Total CPU:        6.23 hr
       Time step:    0.139E-02 s, Total time:       8.99 s
       Max CFL number:  0.94E+00 at ( 50, 42,127)
       Max divergence:  0.62E+02 at ( 51, 48, 63)
       Min divergence: -0.16E+02 at ( 44, 53,124)
       Max VN number:   0.21E+00 at ( 43, 54,123)
       Max HRRPUV:  0.30E+05 kW/m^3
       Total Heat Release Rate:            507.112 kW
       Radiation Loss to Boundaries:      -181.427 kW
 
       Time Step    6200   November  9, 2015  16:18:18
       Pressure Iterations:      1
       Maximum Velocity Error:  0.21E-14 on Mesh   1 at (  34  41   0)
       ---------------------------------------------------------------
       CPU/step:     0.366E+01 s, Total CPU:        6.34 hr
       Time step:    0.124E-02 s, Total time:       9.13 s
       Max CFL number:  0.89E+00 at ( 42, 50, 97)
       Max divergence:  0.67E+02 at ( 46, 52,111)
       Min divergence: -0.14E+02 at ( 67, 56,  5)
       Max VN number:   0.17E+00 at ( 44, 51,111)
       Max HRRPUV:  0.34E+05 kW/m^3
       Total Heat Release Rate:            517.100 kW
       Radiation Loss to Boundaries:      -182.690 kW
 
       Time Step    6300   November  9, 2015  16:24:25
       Pressure Iterations:      1
       Maximum Velocity Error:  0.21E-14 on Mesh   1 at (  34  41   0)
       ---------------------------------------------------------------
       CPU/step:     0.364E+01 s, Total CPU:        6.44 hr
       Time step:    0.136E-02 s, Total time:       9.26 s
       Max CFL number:  0.87E+00 at ( 49, 49,143)
       Max divergence:  0.53E+02 at ( 70, 36,  2)
       Min divergence: -0.16E+02 at ( 54, 55, 61)
       Max VN number:   0.20E+00 at ( 48, 39, 80)
       Max HRRPUV:  0.24E+05 kW/m^3
       Total Heat Release Rate:            480.117 kW
       Radiation Loss to Boundaries:      -171.098 kW
 
       Time Step    6400   November  9, 2015  16:30:34
       Pressure Iterations:      1
       Maximum Velocity Error:  0.21E-14 on Mesh   1 at (  34  41   0)
       ---------------------------------------------------------------
       CPU/step:     0.366E+01 s, Total CPU:        6.54 hr
       Time step:    0.122E-02 s, Total time:       9.38 s
       Max CFL number:  0.83E+00 at ( 52, 46,145)
       Max divergence:  0.58E+02 at ( 51, 53, 53)
       Min divergence: -0.16E+02 at ( 41, 39, 13)
       Max VN number:   0.15E+00 at ( 47, 56,109)
       Max HRRPUV:  0.27E+05 kW/m^3
       Total Heat Release Rate:            491.754 kW
       Radiation Loss to Boundaries:      -167.141 kW
 
       Time Step    6500   November  9, 2015  16:36:42
       Pressure Iterations:      1
       Maximum Velocity Error:  0.22E-14 on Mesh   1 at (  34  41   0)
       ---------------------------------------------------------------
       CPU/step:     0.364E+01 s, Total CPU:        6.64 hr
       Time step:    0.132E-02 s, Total time:       9.52 s
       Max CFL number:  0.83E+00 at ( 57, 46,106)
       Max divergence:  0.59E+02 at ( 54, 46, 56)
       Min divergence: -0.18E+02 at ( 56, 49,118)
       Max VN number:   0.20E+00 at ( 51, 65,120)
       Max HRRPUV:  0.29E+05 kW/m^3
       Total Heat Release Rate:            525.566 kW
       Radiation Loss to Boundaries:      -183.405 kW
 
       Time Step    6600   November  9, 2015  16:42:48
       Pressure Iterations:      1
       Maximum Velocity Error:  0.23E-14 on Mesh   1 at (  34  41   0)
       ---------------------------------------------------------------
       CPU/step:     0.364E+01 s, Total CPU:        6.74 hr
       Time step:    0.132E-02 s, Total time:       9.65 s
       Max CFL number:  0.87E+00 at ( 54, 56, 87)
       Max divergence:  0.42E+02 at ( 68, 30,  2)
       Min divergence: -0.18E+02 at ( 51, 50,136)
       Max VN number:   0.19E+00 at ( 65, 39,147)
       Max HRRPUV:  0.23E+05 kW/m^3
       Total Heat Release Rate:            441.873 kW
       Radiation Loss to Boundaries:      -159.843 kW
 
       Time Step    6700   November  9, 2015  16:48:59
       Pressure Iterations:      1
       Maximum Velocity Error:  0.23E-14 on Mesh   1 at (  34  41   0)
       ---------------------------------------------------------------
       CPU/step:     0.368E+01 s, Total CPU:        6.84 hr
       Time step:    0.127E-02 s, Total time:       9.78 s
       Max CFL number:  0.88E+00 at ( 46, 55,132)
       Max divergence:  0.47E+02 at ( 63, 38,  7)
       Min divergence: -0.15E+02 at ( 34, 69, 14)
       Max VN number:   0.18E+00 at ( 53, 55,132)
       Max HRRPUV:  0.27E+05 kW/m^3
       Total Heat Release Rate:            463.958 kW
       Radiation Loss to Boundaries:      -161.271 kW
 
       Time Step    6800   November  9, 2015  16:55:05
       Pressure Iterations:      1
       Maximum Velocity Error:  0.24E-14 on Mesh   1 at (  34  41   0)
       ---------------------------------------------------------------
       CPU/step:     0.363E+01 s, Total CPU:        6.94 hr
       Time step:    0.127E-02 s, Total time:       9.90 s
       Max CFL number:  0.84E+00 at ( 62, 59,136)
       Max divergence:  0.47E+02 at ( 49, 41, 62)
       Min divergence: -0.17E+02 at ( 31, 54,  4)
       Max VN number:   0.18E+00 at ( 49, 41, 62)
       Max HRRPUV:  0.33E+05 kW/m^3
       Total Heat Release Rate:            498.262 kW
       Radiation Loss to Boundaries:      -172.435 kW
 
       Time Step    6875   November  9, 2015  16:59:39
       Pressure Iterations:      1
       Maximum Velocity Error:  0.25E-14 on Mesh   1 at (  34  41   0)
       ---------------------------------------------------------------
       CPU/step:     0.363E+01 s, Total CPU:        7.02 hr
       Time step:    0.140E-02 s, Total time:      10.00 s
       Max CFL number:  0.95E+00 at ( 51, 44, 81)
       Max divergence:  0.47E+02 at ( 49, 41, 62)
       Min divergence: -0.17E+02 at ( 31, 54,  4)
       Max VN number:   0.18E+00 at ( 47, 58,134)
       Max HRRPUV:  0.33E+05 kW/m^3
       Total Heat Release Rate:            529.010 kW
       Radiation Loss to Boundaries:      -183.475 kW
 


 DEVICE Activation Times



 CPU Time Usage, Mesh   1

                 CPU (s)        %  
       ----------------------------
       MAIN     25485.12     100.00
       DIVG      8363.52      32.82
       MASS      5000.66      19.62
       VELO      3570.96      14.01
       PRES      1964.81       7.71
       WALL       812.95       3.19
       DUMP       426.13       1.67
       PART         0.00       0.00
       RADI      3994.55      15.67
       FIRE      1133.51       4.45
       COMM         0.22       0.00
       SubTot   25267.31      99.15


 Time Stepping Wall Clock Time (s):    25451.539
 Total Elapsed Wall Clock Time (s):    25485.127

STOP: FDS completed successfully (CHID: burner)
