
 Fire Dynamics Simulator

 Compilation Date : Wed, 28 May 2014
 Version          : FDS 6.1.0 Serial

 OpenMP Enabled

 Number of OpenMP threads:   9

 SVN Revision No. : 19412

 Job TITLE        : 
 Job ID string    : burner-9


 Grid Dimensions, Mesh     1

   Cells in the X Direction           100
   Cells in the Y Direction           100
   Cells in the Z Direction           150


 Physical Dimensions, Mesh     1

   Length (m)                       2.000
   Width  (m)                       2.000
   Height (m)                       3.000
   Initial Time Step (s)            0.018


 Miscellaneous Parameters

   Simulation Start Time (s)          0.0
   Simulation End Time (s)           10.0
   LES Calculation
   Deardorff Model (C_DEARDORFF)     0.10
   Turbulent Prandtl Number          0.50
   Turbulent Schmidt Number          0.50
   Ambient Temperature (C)          20.00


 Mass Fraction Transformation Matrix to Convert Species Mixtures (Columns) to Primitive Species (Rows)

                         AIR       REAC_FUE  PRODUCTS
   REAC_FUEL             0.000000  1.000000  0.000000
   NITROGEN              0.763018  0.000000  0.669595
   OXYGEN                0.231164  0.000000  0.000000
   CARBON DIOXIDE        0.000592  0.000000  0.193121
   CARBON MONOXIDE       0.000000  0.000000  0.005558
   WATER VAPOR           0.005226  0.000000  0.105524
   SOOT                  0.000000  0.000000  0.026202


 Primitive Species Information

   REAC_FUEL                                                   
   Gas Species
   Molecular Weight (g/mol)            19.64455
   Ambient Density (kg/m^3)            0.817
   Enthalpy of Formation (J/kg)     not specified

   NITROGEN                                                    
   Gas Species
   Molecular Weight (g/mol)            28.01340
   Ambient Density (kg/m^3)            1.165
   Enthalpy of Formation (J/kg)        0.00E+00

   OXYGEN                                                      
   Gas Species
   Molecular Weight (g/mol)            31.99880
   Ambient Density (kg/m^3)            1.330
   Enthalpy of Formation (J/kg)        0.00E+00

   CARBON DIOXIDE                                              
   Gas Species
   Molecular Weight (g/mol)            44.00950
   Ambient Density (kg/m^3)            1.830
   Enthalpy of Formation (J/kg)       -8.94E+06

   CARBON MONOXIDE                                             
   Gas Species
   Molecular Weight (g/mol)            28.01010
   Ambient Density (kg/m^3)            1.164
   Enthalpy of Formation (J/kg)       -3.95E+06

   WATER VAPOR                                                 
   Gas Species
   Molecular Weight (g/mol)            18.01528
   Ambient Density (kg/m^3)            0.749
   Enthalpy of Formation (J/kg)       -1.34E+07

   SOOT                                                        
   Gas Species
   Molecular Weight (g/mol)            10.91042
   Ambient Density (kg/m^3)            0.454
   Enthalpy of Formation (J/kg)        0.00E+00


 Tracked (Lumped) Species Information

   AIR                                                         
   Background Species
   Molecular Weight (g/mol)            28.76431
   Ambient Density (kg/m^3)            1.196
   Initial Mass Fraction               1.000
   Enthalpy of Formation (J/kg)     -7.54E+04

   Sub Species                    Mass Fraction     Mole Fraction
   NITROGEN                       7.630183E-01      7.834714E-01
   OXYGEN                         2.311635E-01      2.077972E-01
   CARBON DIOXIDE                 5.918904E-04      3.868556E-04
   WATER VAPOR                    5.226257E-03      8.344566E-03
 
   Viscosity (kg/m/s)   Ambient (293 K):  1.79E-05
                                  500 K:  2.61E-05
                                 1000 K:  4.12E-05
                                 1500 K:  5.36E-05
   Therm. Cond. (W/m/K) Ambient (293 K):  3.62E-02
                                  500 K:  5.41E-02
                                 1000 K:  9.44E-02
                                 1500 K:  1.31E-01
   Spec. Heat (J/kg/K)  Ambient (293 K):  1.01E+03
                                  500 K:  1.04E+03
                                 1000 K:  1.15E+03
                                 1500 K:  1.22E+03
   Diff. Coeff. (m^2/s) Ambient (293 K):  1.99E-05
                                  500 K:  4.96E-05
                                 1000 K:  1.58E-04
                                 1500 K:  3.09E-04

   REAC_FUEL                                                   
   Molecular Weight (g/mol)            19.64455
   Ambient Density (kg/m^3)            0.817
   Initial Mass Fraction               0.000
   Enthalpy of Formation (J/kg)     -3.57E+06

   Sub Species                    Mass Fraction     Mole Fraction
   REAC_FUEL                      1.000000E+00      1.000000E+00
 
   Viscosity (kg/m/s)   Ambient (293 K):  1.49E-05
                                  500 K:  2.17E-05
                                 1000 K:  3.41E-05
                                 1500 K:  4.44E-05
   Therm. Cond. (W/m/K) Ambient (293 K):  4.42E-02
                                  500 K:  6.42E-02
                                 1000 K:  1.01E-01
                                 1500 K:  1.32E-01
   Spec. Heat (J/kg/K)  Ambient (293 K):  1.48E+03
                                  500 K:  1.48E+03
                                 1000 K:  1.48E+03
                                 1500 K:  1.48E+03
   Diff. Coeff. (m^2/s) Ambient (293 K):  2.21E-05
                                  500 K:  5.51E-05
                                 1000 K:  1.75E-04
                                 1500 K:  3.43E-04

   PRODUCTS                                                    
   Molecular Weight (g/mol)            27.21216
   Ambient Density (kg/m^3)            1.131
   Initial Mass Fraction               0.000
   Enthalpy of Formation (J/kg)     -3.17E+06

   Sub Species                    Mass Fraction     Mole Fraction
   NITROGEN                       6.695953E-01      6.504435E-01
   CARBON DIOXIDE                 1.931210E-01      1.194115E-01
   CARBON MONOXIDE                5.557921E-03      5.399590E-03
   WATER VAPOR                    1.055242E-01      1.593948E-01
   SOOT                           2.620163E-02      6.535062E-02
 
   Viscosity (kg/m/s)   Ambient (293 K):  1.56E-05
                                  500 K:  2.31E-05
                                 1000 K:  3.79E-05
                                 1500 K:  5.02E-05
   Therm. Cond. (W/m/K) Ambient (293 K):  3.38E-02
                                  500 K:  5.41E-02
                                 1000 K:  1.04E-01
                                 1500 K:  1.52E-01
   Spec. Heat (J/kg/K)  Ambient (293 K):  1.08E+03
                                  500 K:  1.15E+03
                                 1000 K:  1.31E+03
                                 1500 K:  1.42E+03
   Diff. Coeff. (m^2/s) Ambient (293 K):  1.92E-05
                                  500 K:  4.86E-05
                                 1000 K:  1.57E-04
                                 1500 K:  3.07E-04


 Gas Phase Reaction Information

   SFPE Handbook, GM27

   Reaction ID:  POLYURETHANE_REAC

   Fuel                                           Heat of Combustion (kJ/kg)
   REAC_FUEL                                                      19855.5251

   Stoichiometry

   Primitive Species
   Species ID                                                 Stoich. Coeff.
   REAC_FUEL                                                       -1.000000
   NITROGEN                                                         0.040000
   OXYGEN                                                          -0.930505
   CARBON DIOXIDE                                                   0.649689
   CARBON MONOXIDE                                                  0.029456
   WATER VAPOR                                                      0.832175
   SOOT                                                             0.356505

   Tracked (Lumped) Species
   Species ID                                                 Stoich. Coeff.
   AIR                                                             -4.477947
   REAC_FUEL                                                       -1.000000
   PRODUCTS                                                         5.455267

   Reaction Kinetics

   Arrhenius Parameters
   Pre-exponential:    Infinite
   Activation Energy:  N/A

   ODE Solver:  EXPLICIT EULER
   Extinction Model:  EXTINCTION 2
   Critical Flame Temperature (K):   1600.2


 Material Information


 Surface Conditions

   0 INERT (DEFAULT)

   1 burner
     HRR Per Unit Area (kW/m2)        500.0
     REAC_FUEL Mass Flux (kg/s/m2)   2.52E-02

   2 OPEN
     Passive Vent to Atmosphere

   3 MIRROR
     Symmetry Plane

   4 INTERPOLATED

   5 PERIODIC

   6 HVAC

   7 MASSLESS TRACER

   8 DROPLET

   9 VEGETATION

  10 EVACUATION_OUTFLOW
     Normal Velocity (m/s)         0.000

  11 MASSLESS TARGET


 Device Coordinates

     1 Coords:     0.00     0.00     1.50, Make: null, ID: temp 1.5 m, Quantity: TEMPERATURE


 Slice File Information, Mesh     1

   Sampling Interval (s)             0.010

   1 Nodes:   0 100  50  50   0 150, Quantity: TEMPERATURE


 Radiation Model Information

   Number of control angles  104
   Time step increment         3
   Angle increment             5
   Theta band N_phi   Solid angle
     1:        4  0.12
     2:       12  0.11
     3:       16  0.13
     4:       20  0.12
     5:       20  0.12
     6:       16  0.13
     7:       12  0.11
     8:        4  0.12
   Using gray gas absorption.
   Mean beam length  0.100 m
 
 

 Run Time Diagnostics

       Time Step       1   August  5, 2014  15:03:59
       Pressure Iterations:      1
       Maximum Velocity Error:  0.32E-17 on Mesh   1 at (  37  29   0)
       ----------------------------------------------
       CPU/step:    13.515 s, Total CPU:       13.51 s
       Time step:  0.01826 s, Total time:       0.02 s
       Max CFL number:  0.18E-01 at ( 75, 82, 27)
       Max divergence:  0.11E+00 at ( 68, 32,  1)
       Min divergence: -0.14E-05 at ( 67, 16, 92)
       Total Heat Release Rate:              1.135 kW
       Radiation Loss to Boundaries:        -0.397 kW
 
       Time Step       2   August  5, 2014  15:04:01
       Pressure Iterations:      1
       Maximum Velocity Error:  0.16E-16 on Mesh   1 at (  62  59   0)
       ----------------------------------------------
       CPU/step:     1.967 s, Total CPU:       15.48 s
       Time step:  0.01826 s, Total time:       0.04 s
       Max CFL number:  0.21E-01 at ( 66, 42,  1)
       Max divergence:  0.42E+00 at ( 66, 42,  1)
       Min divergence: -0.15E+00 at ( 25, 69,  1)
       Total Heat Release Rate:              4.256 kW
       Radiation Loss to Boundaries:        -1.488 kW
 
       Time Step       3   August  5, 2014  15:04:03
       Pressure Iterations:      1
       Maximum Velocity Error:  0.27E-16 on Mesh   1 at (  61  61   0)
       ----------------------------------------------
       CPU/step:     2.660 s, Total CPU:       18.14 s
       Time step:  0.01826 s, Total time:       0.05 s
       Max CFL number:  0.32E-01 at ( 66, 42,  1)
       Max divergence:  0.10E+01 at ( 66, 42,  1)
       Min divergence: -0.14E+00 at ( 44, 61,  2)
       Total Heat Release Rate:              8.868 kW
       Radiation Loss to Boundaries:        -3.068 kW
 
       Time Step       4   August  5, 2014  15:04:05
       Pressure Iterations:      1
       Maximum Velocity Error:  0.32E-16 on Mesh   1 at (  42  60   0)
       ----------------------------------------------
       CPU/step:     1.964 s, Total CPU:       20.11 s
       Time step:  0.01826 s, Total time:       0.07 s
       Max CFL number:  0.54E-01 at ( 54, 75,  1)
       Max divergence:  0.16E+01 at ( 66, 42,  1)
       Min divergence: -0.16E+00 at ( 44, 61,  2)
       Total Heat Release Rate:             14.596 kW
       Radiation Loss to Boundaries:        -5.078 kW
 
       Time Step       5   August  5, 2014  15:04:07
       Pressure Iterations:      1
       Maximum Velocity Error:  0.55E-16 on Mesh   1 at (  60  46   0)
       ----------------------------------------------
       CPU/step:     1.968 s, Total CPU:       22.07 s
       Time step:  0.01826 s, Total time:       0.09 s
       Max CFL number:  0.77E-01 at ( 54, 75,  1)
       Max divergence:  0.22E+01 at ( 66, 42,  1)
       Min divergence: -0.16E+00 at ( 40, 76,  2)
       Total Heat Release Rate:             21.157 kW
       Radiation Loss to Boundaries:        -7.375 kW
 
       Time Step       6   August  5, 2014  15:04:10
       Pressure Iterations:      1
       Maximum Velocity Error:  0.72E-16 on Mesh   1 at (  63  58   0)
       ----------------------------------------------
       CPU/step:     2.692 s, Total CPU:       24.77 s
       Time step:  0.01826 s, Total time:       0.11 s
       Max CFL number:  0.10E+00 at ( 54, 75,  1)
       Max divergence:  0.28E+01 at ( 66, 42,  1)
       Min divergence: -0.14E+00 at ( 63, 37,  2)
       Total Heat Release Rate:             28.337 kW
       Radiation Loss to Boundaries:        -9.735 kW
 
       Time Step       7   August  5, 2014  15:04:12
       Pressure Iterations:      1
       Maximum Velocity Error:  0.83E-16 on Mesh   1 at (  58  60   0)
       ----------------------------------------------
       CPU/step:     1.967 s, Total CPU:       26.73 s
       Time step:  0.01826 s, Total time:       0.13 s
       Max CFL number:  0.13E+00 at ( 54, 75,  1)
       Max divergence:  0.35E+01 at ( 66, 42,  1)
       Min divergence: -0.12E+00 at ( 63, 37,  2)
       Total Heat Release Rate:             35.975 kW
       Radiation Loss to Boundaries:       -12.459 kW
 
       Time Step       8   August  5, 2014  15:04:14
       Pressure Iterations:      1
       Maximum Velocity Error:  0.10E-15 on Mesh   1 at (  44  51   0)
       ----------------------------------------------
       CPU/step:     1.993 s, Total CPU:       28.73 s
       Time step:  0.01826 s, Total time:       0.15 s
       Max CFL number:  0.15E+00 at ( 54, 75,  1)
       Max divergence:  0.41E+01 at ( 66, 42,  1)
       Min divergence: -0.10E+00 at ( 63, 37,  2)
       Total Heat Release Rate:             43.946 kW
       Radiation Loss to Boundaries:       -15.249 kW
 
       Time Step       9   August  5, 2014  15:04:17
       Pressure Iterations:      1
       Maximum Velocity Error:  0.12E-15 on Mesh   1 at (  44  51   0)
       ----------------------------------------------
       CPU/step:     2.716 s, Total CPU:       31.44 s
       Time step:  0.01826 s, Total time:       0.16 s
       Max CFL number:  0.17E+00 at ( 66, 42,  1)
       Max divergence:  0.48E+01 at ( 66, 42,  1)
       Min divergence: -0.75E-01 at ( 63, 37,  2)
       Total Heat Release Rate:             52.158 kW
       Radiation Loss to Boundaries:       -17.711 kW
 
       Time Step      10   August  5, 2014  15:04:19
       Pressure Iterations:      1
       Maximum Velocity Error:  0.12E-15 on Mesh   1 at (  50  42   0)
       ----------------------------------------------
       CPU/step:     1.986 s, Total CPU:       33.43 s
       Time step:  0.01826 s, Total time:       0.18 s
       Max CFL number:  0.20E+00 at ( 66, 42,  1)
       Max divergence:  0.54E+01 at ( 66, 42,  1)
       Min divergence: -0.48E-01 at ( 63, 37,  2)
       Total Heat Release Rate:             60.536 kW
       Radiation Loss to Boundaries:       -20.876 kW
 
       Time Step      20   August  5, 2014  15:04:42
       Pressure Iterations:      1
       Maximum Velocity Error:  0.55E-15 on Mesh   1 at (  48  57   0)
       ----------------------------------------------
       CPU/step:     2.241 s, Total CPU:       55.84 s
       Time step:  0.01826 s, Total time:       0.37 s
       Max CFL number:  0.89E+00 at ( 26, 74,  1)
       Max divergence:  0.26E+02 at ( 75, 48,  1)
       Min divergence: -0.80E+01 at ( 27, 74,  1)
       Total Heat Release Rate:             21.226 kW
       Radiation Loss to Boundaries:       -26.037 kW
 
       Time Step      30   August  5, 2014  15:05:07
       Pressure Iterations:      1
       Maximum Velocity Error:  0.64E-15 on Mesh   1 at (  48  57   0)
       ----------------------------------------------
       CPU/step:     2.510 s, Total CPU:        1.35 min
       Time step:  0.01164 s, Total time:       0.49 s
       Max CFL number:  0.83E+00 at ( 59, 73,  1)
       Max divergence:  0.30E+02 at ( 28, 50,  1)
       Min divergence: -0.51E+01 at ( 73, 32,  3)
       Total Heat Release Rate:             79.398 kW
       Radiation Loss to Boundaries:       -26.672 kW
 
       Time Step      40   August  5, 2014  15:05:32
       Pressure Iterations:      1
       Maximum Velocity Error:  0.63E-15 on Mesh   1 at (  48  57   0)
       ----------------------------------------------
       CPU/step:     2.445 s, Total CPU:        1.76 min
       Time step:  0.00810 s, Total time:       0.59 s
       Max CFL number:  0.91E+00 at ( 30, 71,  6)
       Max divergence:  0.35E+02 at ( 71, 34,  1)
       Min divergence: -0.87E+01 at ( 71, 30,  2)
       Total Heat Release Rate:            146.710 kW
       Radiation Loss to Boundaries:       -49.728 kW
 
       Time Step      50   August  5, 2014  15:05:57
       Pressure Iterations:      1
       Maximum Velocity Error:  0.61E-15 on Mesh   1 at (  51  68   0)
       ----------------------------------------------
       CPU/step:     2.421 s, Total CPU:        2.16 min
       Time step:  0.00533 s, Total time:       0.66 s
       Max CFL number:  0.88E+00 at ( 31, 30,  9)
       Max divergence:  0.27E+02 at ( 73, 46,  1)
       Min divergence: -0.11E+02 at ( 71, 44,  8)
       Total Heat Release Rate:            190.416 kW
       Radiation Loss to Boundaries:       -64.080 kW
 
       Time Step      60   August  5, 2014  15:06:20
       Pressure Iterations:      1
       Maximum Velocity Error:  0.62E-15 on Mesh   1 at (  51  68   0)
       ----------------------------------------------
       CPU/step:     2.275 s, Total CPU:        2.54 min
       Time step:  0.00533 s, Total time:       0.71 s
       Max CFL number:  0.90E+00 at ( 30, 69, 10)
       Max divergence:  0.31E+02 at ( 29, 66,  1)
       Min divergence: -0.12E+02 at ( 69, 56,  8)
       Total Heat Release Rate:            203.873 kW
       Radiation Loss to Boundaries:       -63.699 kW
 
       Time Step      70   August  5, 2014  15:06:43
       Pressure Iterations:      1
       Maximum Velocity Error:  0.62E-15 on Mesh   1 at (  47  67   0)
       ----------------------------------------------
       CPU/step:     2.272 s, Total CPU:        2.92 min
       Time step:  0.00471 s, Total time:       0.76 s
       Max CFL number:  0.85E+00 at ( 70, 71, 13)
       Max divergence:  0.37E+02 at ( 45, 70,  1)
       Min divergence: -0.11E+02 at ( 46, 33,  7)
       Total Heat Release Rate:            220.658 kW
       Radiation Loss to Boundaries:       -72.980 kW
 
       Time Step      80   August  5, 2014  15:07:05
       Pressure Iterations:      1
       Maximum Velocity Error:  0.64E-15 on Mesh   1 at (  47  67   0)
       ----------------------------------------------
       CPU/step:     2.185 s, Total CPU:        3.28 min
       Time step:  0.00471 s, Total time:       0.81 s
       Max CFL number:  0.89E+00 at ( 33, 30, 14)
       Max divergence:  0.32E+02 at ( 60, 50,  2)
       Min divergence: -0.10E+02 at ( 72, 30, 20)
       Total Heat Release Rate:            234.993 kW
       Radiation Loss to Boundaries:       -79.666 kW
 
       Time Step      90   August  5, 2014  15:07:28
       Pressure Iterations:      1
       Maximum Velocity Error:  0.62E-15 on Mesh   1 at (  47  67   0)
       ----------------------------------------------
       CPU/step:     2.282 s, Total CPU:        3.66 min
       Time step:  0.00471 s, Total time:       0.86 s
       Max CFL number:  0.92E+00 at ( 46, 32,  9)
       Max divergence:  0.30E+02 at ( 57, 73,  1)
       Min divergence: -0.11E+02 at ( 61, 62, 10)
       Total Heat Release Rate:            278.824 kW
       Radiation Loss to Boundaries:       -89.818 kW
 
       Time Step     100   August  5, 2014  15:07:51
       Pressure Iterations:      1
       Maximum Velocity Error:  0.67E-15 on Mesh   1 at (  50  64   0)
       ----------------------------------------------
       CPU/step:     2.273 s, Total CPU:        4.04 min
       Time step:  0.00414 s, Total time:       0.90 s
       Max CFL number:  0.88E+00 at ( 70, 46, 13)
       Max divergence:  0.34E+02 at ( 42, 53,  2)
       Min divergence: -0.13E+02 at ( 36, 62, 10)
       Total Heat Release Rate:            286.397 kW
       Radiation Loss to Boundaries:      -101.293 kW
 
       Time Step     200   August  5, 2014  15:11:35
       Pressure Iterations:      1
       Maximum Velocity Error:  0.92E-15 on Mesh   1 at (  57  53   0)
       ----------------------------------------------
       CPU/step:     2.203 s, Total CPU:        7.71 min
       Time step:  0.00255 s, Total time:       1.23 s
       Max CFL number:  0.96E+00 at ( 50, 48, 42)
       Max divergence:  0.30E+02 at ( 48, 28,  1)
       Min divergence: -0.12E+02 at ( 74, 52, 35)
       Total Heat Release Rate:            279.901 kW
       Radiation Loss to Boundaries:       -95.538 kW
 
       Time Step     300   August  5, 2014  15:15:43
       Pressure Iterations:      1
       Maximum Velocity Error:  0.94E-15 on Mesh   1 at (  57  53   0)
       ----------------------------------------------
       CPU/step:     2.446 s, Total CPU:       11.79 min
       Time step:  0.00191 s, Total time:       1.43 s
       Max CFL number:  0.94E+00 at ( 40, 51, 56)
       Max divergence:  0.37E+02 at ( 55, 68, 61)
       Min divergence: -0.17E+02 at ( 55, 67, 61)
       Total Heat Release Rate:            255.925 kW
       Radiation Loss to Boundaries:       -86.116 kW
 
       Time Step     400   August  5, 2014  15:19:29
       Pressure Iterations:      1
       Maximum Velocity Error:  0.97E-15 on Mesh   1 at (  57  53   0)
       ----------------------------------------------
       CPU/step:     2.229 s, Total CPU:       15.51 min
       Time step:  0.00144 s, Total time:       1.60 s
       Max CFL number:  0.90E+00 at ( 55, 54, 86)
       Max divergence:  0.29E+02 at ( 55, 53, 48)
       Min divergence: -0.16E+02 at ( 56, 51, 38)
       Total Heat Release Rate:            306.165 kW
       Radiation Loss to Boundaries:      -102.463 kW
 
       Time Step     500   August  5, 2014  15:23:13
       Pressure Iterations:      1
       Maximum Velocity Error:  0.10E-14 on Mesh   1 at (  57  53   0)
       ----------------------------------------------
       CPU/step:     2.205 s, Total CPU:       19.18 min
       Time step:  0.00142 s, Total time:       1.74 s
       Max CFL number:  0.95E+00 at ( 47, 50,119)
       Max divergence:  0.36E+02 at ( 27, 74,  1)
       Min divergence: -0.15E+02 at ( 56, 52, 95)
       Total Heat Release Rate:            390.952 kW
       Radiation Loss to Boundaries:      -125.714 kW
 
       Time Step     600   August  5, 2014  15:27:00
       Pressure Iterations:      1
       Maximum Velocity Error:  0.96E-15 on Mesh   1 at (  57  53   0)
       ----------------------------------------------
       CPU/step:     2.235 s, Total CPU:       22.91 min
       Time step:  0.00126 s, Total time:       1.88 s
       Max CFL number:  0.89E+00 at ( 44, 54,143)
       Max divergence:  0.36E+02 at ( 48, 50, 75)
       Min divergence: -0.12E+02 at ( 50, 44, 83)
       Total Heat Release Rate:            401.181 kW
       Radiation Loss to Boundaries:      -129.141 kW
 
       Time Step     700   August  5, 2014  15:30:48
       Pressure Iterations:      1
       Maximum Velocity Error:  0.99E-15 on Mesh   1 at (  57  53   0)
       ----------------------------------------------
       CPU/step:     2.236 s, Total CPU:       26.63 min
       Time step:  0.00137 s, Total time:       2.02 s
       Max CFL number:  0.91E+00 at ( 53, 55, 99)
       Max divergence:  0.31E+02 at ( 27, 37,  1)
       Min divergence: -0.14E+02 at ( 45, 54, 75)
       Total Heat Release Rate:            453.954 kW
       Radiation Loss to Boundaries:      -154.968 kW
 
       Time Step     800   August  5, 2014  15:34:33
       Pressure Iterations:      1
       Maximum Velocity Error:  0.10E-14 on Mesh   1 at (  57  53   0)
       ----------------------------------------------
       CPU/step:     2.218 s, Total CPU:       30.33 min
       Time step:  0.00134 s, Total time:       2.15 s
       Max CFL number:  0.91E+00 at ( 52, 51,143)
       Max divergence:  0.42E+02 at ( 51, 55, 67)
       Min divergence: -0.14E+02 at ( 61, 34, 25)
       Total Heat Release Rate:            559.714 kW
       Radiation Loss to Boundaries:      -189.932 kW
 
       Time Step     900   August  5, 2014  15:38:19
       Pressure Iterations:      1
       Maximum Velocity Error:  0.10E-14 on Mesh   1 at (  57  53   0)
       ----------------------------------------------
       CPU/step:     2.226 s, Total CPU:       34.04 min
       Time step:  0.00115 s, Total time:       2.28 s
       Max CFL number:  0.83E+00 at ( 43, 52,140)
       Max divergence:  0.39E+02 at ( 56, 47, 29)
       Min divergence: -0.16E+02 at ( 43, 52,141)
       Total Heat Release Rate:            665.707 kW
       Radiation Loss to Boundaries:      -215.888 kW
 
       Time Step    1000   August  5, 2014  15:42:03
       Pressure Iterations:      1
       Maximum Velocity Error:  0.10E-14 on Mesh   1 at (  57  53   0)
       ----------------------------------------------
       CPU/step:     2.210 s, Total CPU:       37.72 min
       Time step:  0.00127 s, Total time:       2.40 s
       Max CFL number:  0.91E+00 at ( 56, 50,105)
       Max divergence:  0.41E+02 at ( 46, 50, 87)
       Min divergence: -0.15E+02 at ( 54, 54,144)
       Total Heat Release Rate:            633.991 kW
       Radiation Loss to Boundaries:      -224.656 kW
 
       Time Step    1100   August  5, 2014  15:45:49
       Pressure Iterations:      1
       Maximum Velocity Error:  0.99E-15 on Mesh   1 at (  57  53   0)
       ----------------------------------------------
       CPU/step:     2.231 s, Total CPU:       41.44 min
       Time step:  0.00123 s, Total time:       2.53 s
       Max CFL number:  0.93E+00 at ( 50, 53,120)
       Max divergence:  0.39E+02 at ( 59, 54, 94)
       Min divergence: -0.15E+02 at ( 39, 59,127)
       Total Heat Release Rate:            623.401 kW
       Radiation Loss to Boundaries:      -219.938 kW
 
       Time Step    1200   August  5, 2014  15:49:40
       Pressure Iterations:      1
       Maximum Velocity Error:  0.10E-14 on Mesh   1 at (  57  53   0)
       ----------------------------------------------
       CPU/step:     2.269 s, Total CPU:       45.22 min
       Time step:  0.00119 s, Total time:       2.65 s
       Max CFL number:  0.87E+00 at ( 46, 53,140)
       Max divergence:  0.33E+02 at ( 33, 32,  5)
       Min divergence: -0.16E+02 at ( 65, 50, 69)
       Total Heat Release Rate:            490.842 kW
       Radiation Loss to Boundaries:      -172.933 kW
 
       Time Step    1300   August  5, 2014  15:53:21
       Pressure Iterations:      1
       Maximum Velocity Error:  0.98E-15 on Mesh   1 at (  57  53   0)
       ----------------------------------------------
       CPU/step:     2.184 s, Total CPU:       48.86 min
       Time step:  0.00131 s, Total time:       2.77 s
       Max CFL number:  0.81E+00 at ( 53, 44, 96)
       Max divergence:  0.38E+02 at ( 48, 53, 82)
       Min divergence: -0.14E+02 at ( 46, 38,  6)
       Total Heat Release Rate:            529.869 kW
       Radiation Loss to Boundaries:      -190.387 kW
 
       Time Step    1400   August  5, 2014  15:57:04
       Pressure Iterations:      1
       Maximum Velocity Error:  0.99E-15 on Mesh   1 at (  57  53   0)
       ----------------------------------------------
       CPU/step:     2.194 s, Total CPU:       52.52 min
       Time step:  0.00123 s, Total time:       2.90 s
       Max CFL number:  0.82E+00 at ( 50, 45,143)
       Max divergence:  0.39E+02 at ( 46, 57,  1)
       Min divergence: -0.17E+02 at ( 59, 39,149)
       Total Heat Release Rate:            535.540 kW
       Radiation Loss to Boundaries:      -181.083 kW
 
       Time Step    1500   August  5, 2014  16:00:45
       Pressure Iterations:      1
       Maximum Velocity Error:  0.99E-15 on Mesh   1 at (  57  53   0)
       ----------------------------------------------
       CPU/step:     2.176 s, Total CPU:       56.15 min
       Time step:  0.00135 s, Total time:       3.03 s
       Max CFL number:  0.88E+00 at ( 50, 51,118)
       Max divergence:  0.34E+02 at ( 59, 39,  3)
       Min divergence: -0.14E+02 at ( 47, 38,130)
       Total Heat Release Rate:            552.457 kW
       Radiation Loss to Boundaries:      -194.818 kW
 
       Time Step    1600   August  5, 2014  16:04:25
       Pressure Iterations:      1
       Maximum Velocity Error:  0.99E-15 on Mesh   1 at (  57  53   0)
       ----------------------------------------------
       CPU/step:     2.171 s, Total CPU:       59.77 min
       Time step:  0.00135 s, Total time:       3.16 s
       Max CFL number:  0.91E+00 at ( 50, 48,136)
       Max divergence:  0.35E+02 at ( 44, 44, 19)
       Min divergence: -0.15E+02 at ( 64, 45, 35)
       Total Heat Release Rate:            484.428 kW
       Radiation Loss to Boundaries:      -176.117 kW
 
       Time Step    1700   August  5, 2014  16:08:05
       Pressure Iterations:      1
       Maximum Velocity Error:  0.10E-14 on Mesh   1 at (  57  53   0)
       ----------------------------------------------
       CPU/step:     2.170 s, Total CPU:        1.06 hr
       Time step:  0.00135 s, Total time:       3.30 s
       Max CFL number:  0.83E+00 at ( 50, 42,121)
       Max divergence:  0.40E+02 at ( 65, 35, 13)
       Min divergence: -0.12E+02 at ( 58, 41,114)
       Total Heat Release Rate:            462.645 kW
       Radiation Loss to Boundaries:      -163.552 kW
 
       Time Step    1800   August  5, 2014  16:11:49
       Pressure Iterations:      1
       Maximum Velocity Error:  0.97E-15 on Mesh   1 at (  57  53   0)
       ----------------------------------------------
       CPU/step:     2.206 s, Total CPU:        1.12 hr
       Time step:  0.00132 s, Total time:       3.44 s
       Max CFL number:  0.83E+00 at ( 48, 51,103)
       Max divergence:  0.38E+02 at ( 54, 53, 54)
       Min divergence: -0.12E+02 at ( 41, 62, 30)
       Total Heat Release Rate:            476.161 kW
       Radiation Loss to Boundaries:      -172.831 kW
 
       Time Step    1900   August  5, 2014  16:15:36
       Pressure Iterations:      1
       Maximum Velocity Error:  0.97E-15 on Mesh   1 at (  57  53   0)
       ----------------------------------------------
       CPU/step:     2.238 s, Total CPU:        1.18 hr
       Time step:  0.00132 s, Total time:       3.57 s
       Max CFL number:  0.95E+00 at ( 50, 49,119)
       Max divergence:  0.34E+02 at ( 27, 74,  1)
       Min divergence: -0.13E+02 at ( 51, 54, 88)
       Total Heat Release Rate:            549.108 kW
       Radiation Loss to Boundaries:      -194.093 kW
 
       Time Step    2000   August  5, 2014  16:19:23
       Pressure Iterations:      1
       Maximum Velocity Error:  0.10E-14 on Mesh   1 at (  57  53   0)
       ----------------------------------------------
       CPU/step:     2.235 s, Total CPU:        1.24 hr
       Time step:  0.00131 s, Total time:       3.69 s
       Max CFL number:  0.87E+00 at ( 44, 51,146)
       Max divergence:  0.33E+02 at ( 52, 45,  7)
       Min divergence: -0.15E+02 at ( 43, 41, 26)
       Total Heat Release Rate:            466.531 kW
       Radiation Loss to Boundaries:      -169.940 kW
 
       Time Step    2100   August  5, 2014  16:23:10
       Pressure Iterations:      1
       Maximum Velocity Error:  0.10E-14 on Mesh   1 at (  57  53   0)
       ----------------------------------------------
       CPU/step:     2.241 s, Total CPU:        1.30 hr
       Time step:  0.00144 s, Total time:       3.83 s
       Max CFL number:  0.94E+00 at ( 49, 48,115)
       Max divergence:  0.38E+02 at ( 49, 51, 49)
       Min divergence: -0.16E+02 at ( 60, 54, 87)
       Total Heat Release Rate:            426.701 kW
       Radiation Loss to Boundaries:      -152.572 kW
 
       Time Step    2200   August  5, 2014  16:26:57
       Pressure Iterations:      1
       Maximum Velocity Error:  0.11E-14 on Mesh   1 at (  59  40   0)
       ----------------------------------------------
       CPU/step:     2.235 s, Total CPU:        1.37 hr
       Time step:  0.00129 s, Total time:       3.96 s
       Max CFL number:  0.88E+00 at ( 50, 42,117)
       Max divergence:  0.38E+02 at ( 46, 51, 11)
       Min divergence: -0.15E+02 at ( 61, 54,111)
       Total Heat Release Rate:            567.834 kW
       Radiation Loss to Boundaries:      -194.915 kW
 
       Time Step    2300   August  5, 2014  16:30:44
       Pressure Iterations:      1
       Maximum Velocity Error:  0.12E-14 on Mesh   1 at (  59  40   0)
       ----------------------------------------------
       CPU/step:     2.238 s, Total CPU:        1.43 hr
       Time step:  0.00140 s, Total time:       4.09 s
       Max CFL number:  0.91E+00 at ( 53, 39,142)
       Max divergence:  0.38E+02 at ( 46, 53, 19)
       Min divergence: -0.11E+02 at ( 32, 64,  4)
       Total Heat Release Rate:            530.242 kW
       Radiation Loss to Boundaries:      -189.773 kW
 
       Time Step    2400   August  5, 2014  16:34:32
       Pressure Iterations:      1
       Maximum Velocity Error:  0.11E-14 on Mesh   1 at (  59  40   0)
       ----------------------------------------------
       CPU/step:     2.244 s, Total CPU:        1.49 hr
       Time step:  0.00138 s, Total time:       4.24 s
       Max CFL number:  0.87E+00 at ( 50, 53, 89)
       Max divergence:  0.34E+02 at ( 40, 45,  5)
       Min divergence: -0.13E+02 at ( 44, 60, 98)
       Total Heat Release Rate:            427.777 kW
       Radiation Loss to Boundaries:      -159.698 kW
 
       Time Step    2500   August  5, 2014  16:38:16
       Pressure Iterations:      1
       Maximum Velocity Error:  0.11E-14 on Mesh   1 at (  59  40   0)
       ----------------------------------------------
       CPU/step:     2.207 s, Total CPU:        1.55 hr
       Time step:  0.00138 s, Total time:       4.37 s
       Max CFL number:  0.83E+00 at ( 53, 49,121)
       Max divergence:  0.33E+02 at ( 74, 70,  1)
       Min divergence: -0.13E+02 at ( 65, 45,  6)
       Total Heat Release Rate:            466.684 kW
       Radiation Loss to Boundaries:      -171.515 kW
 
       Time Step    2600   August  5, 2014  16:42:03
       Pressure Iterations:      1
       Maximum Velocity Error:  0.11E-14 on Mesh   1 at (  59  40   0)
       ----------------------------------------------
       CPU/step:     2.243 s, Total CPU:        1.61 hr
       Time step:  0.00121 s, Total time:       4.51 s
       Max CFL number:  0.90E+00 at ( 59, 52,108)
       Max divergence:  0.42E+02 at ( 51, 42, 39)
       Min divergence: -0.16E+02 at ( 52, 44, 88)
       Total Heat Release Rate:            550.226 kW
       Radiation Loss to Boundaries:      -191.126 kW
 
       Time Step    2700   August  5, 2014  16:45:49
       Pressure Iterations:      1
       Maximum Velocity Error:  0.11E-14 on Mesh   1 at (  59  40   0)
       ----------------------------------------------
       CPU/step:     2.221 s, Total CPU:        1.68 hr
       Time step:  0.00109 s, Total time:       4.63 s
       Max CFL number:  0.89E+00 at ( 51, 49,147)
       Max divergence:  0.41E+02 at ( 41, 46, 49)
       Min divergence: -0.14E+02 at ( 48, 47, 74)
       Total Heat Release Rate:            522.629 kW
       Radiation Loss to Boundaries:      -184.427 kW
 
       Time Step    2800   August  5, 2014  16:49:35
       Pressure Iterations:      1
       Maximum Velocity Error:  0.11E-14 on Mesh   1 at (  59  40   0)
       ----------------------------------------------
       CPU/step:     2.230 s, Total CPU:        1.74 hr
       Time step:  0.00145 s, Total time:       4.77 s
       Max CFL number:  0.93E+00 at ( 50, 49, 85)
       Max divergence:  0.33E+02 at ( 52, 56, 55)
       Min divergence: -0.15E+02 at ( 41, 45, 98)
       Total Heat Release Rate:            514.791 kW
       Radiation Loss to Boundaries:      -185.227 kW
 
       Time Step    2900   August  5, 2014  16:53:23
       Pressure Iterations:      1
       Maximum Velocity Error:  0.11E-14 on Mesh   1 at (  48  34   0)
       ----------------------------------------------
       CPU/step:     2.241 s, Total CPU:        1.80 hr
       Time step:  0.00124 s, Total time:       4.90 s
       Max CFL number:  0.90E+00 at ( 49, 53,135)
       Max divergence:  0.32E+02 at ( 49, 60, 56)
       Min divergence: -0.12E+02 at ( 39, 53, 62)
       Total Heat Release Rate:            488.749 kW
       Radiation Loss to Boundaries:      -183.154 kW
 
       Time Step    3000   August  5, 2014  16:57:09
       Pressure Iterations:      1
       Maximum Velocity Error:  0.11E-14 on Mesh   1 at (  48  34   0)
       ----------------------------------------------
       CPU/step:     2.231 s, Total CPU:        1.86 hr
       Time step:  0.00137 s, Total time:       5.03 s
       Max CFL number:  0.93E+00 at ( 51, 52,109)
       Max divergence:  0.37E+02 at ( 42, 39, 26)
       Min divergence: -0.13E+02 at ( 40, 48,122)
       Total Heat Release Rate:            512.702 kW
       Radiation Loss to Boundaries:      -179.198 kW
 
       Time Step    3100   August  5, 2014  17:00:55
       Pressure Iterations:      1
       Maximum Velocity Error:  0.11E-14 on Mesh   1 at (  65  48   0)
       ----------------------------------------------
       CPU/step:     2.225 s, Total CPU:        1.92 hr
       Time step:  0.00130 s, Total time:       5.15 s
       Max CFL number:  0.96E+00 at ( 48, 49,110)
       Max divergence:  0.33E+02 at ( 56, 43, 16)
       Min divergence: -0.15E+02 at ( 49, 65,136)
       Total Heat Release Rate:            470.725 kW
       Radiation Loss to Boundaries:      -168.335 kW
 
       Time Step    3200   August  5, 2014  17:04:32
       Pressure Iterations:      1
       Maximum Velocity Error:  0.11E-14 on Mesh   1 at (  65  48   0)
       ----------------------------------------------
       CPU/step:     2.145 s, Total CPU:        1.98 hr
       Time step:  0.00143 s, Total time:       5.28 s
       Max CFL number:  0.87E+00 at ( 48, 43,133)
       Max divergence:  0.39E+02 at ( 53, 54, 61)
       Min divergence: -0.15E+02 at ( 49, 51, 85)
       Total Heat Release Rate:            489.154 kW
       Radiation Loss to Boundaries:      -174.417 kW
 
       Time Step    3300   August  5, 2014  17:08:10
       Pressure Iterations:      1
       Maximum Velocity Error:  0.12E-14 on Mesh   1 at (  65  48   0)
       ----------------------------------------------
       CPU/step:     2.150 s, Total CPU:        2.04 hr
       Time step:  0.00139 s, Total time:       5.43 s
       Max CFL number:  0.94E+00 at ( 41, 53,124)
       Max divergence:  0.34E+02 at ( 47, 61,  1)
       Min divergence: -0.13E+02 at ( 54, 51,111)
       Total Heat Release Rate:            436.577 kW
       Radiation Loss to Boundaries:      -157.326 kW
 
       Time Step    3400   August  5, 2014  17:11:48
       Pressure Iterations:      1
       Maximum Velocity Error:  0.13E-14 on Mesh   1 at (  65  48   0)
       ----------------------------------------------
       CPU/step:     2.141 s, Total CPU:        2.10 hr
       Time step:  0.00139 s, Total time:       5.57 s
       Max CFL number:  0.96E+00 at ( 53, 53,101)
       Max divergence:  0.33E+02 at ( 32, 27,  1)
       Min divergence: -0.18E+02 at ( 46, 54,131)
       Total Heat Release Rate:            510.039 kW
       Radiation Loss to Boundaries:      -180.557 kW
 
       Time Step    3500   August  5, 2014  17:15:26
       Pressure Iterations:      1
       Maximum Velocity Error:  0.13E-14 on Mesh   1 at (  65  48   0)
       ----------------------------------------------
       CPU/step:     2.148 s, Total CPU:        2.16 hr
       Time step:  0.00125 s, Total time:       5.69 s
       Max CFL number:  0.91E+00 at ( 53, 53,135)
       Max divergence:  0.35E+02 at ( 44, 48, 70)
       Min divergence: -0.15E+02 at ( 51, 36,  6)
       Total Heat Release Rate:            513.641 kW
       Radiation Loss to Boundaries:      -180.019 kW
 
       Time Step    3600   August  5, 2014  17:19:03
       Pressure Iterations:      1
       Maximum Velocity Error:  0.14E-14 on Mesh   1 at (  65  48   0)
       ----------------------------------------------
       CPU/step:     2.146 s, Total CPU:        2.22 hr
       Time step:  0.00137 s, Total time:       5.82 s
       Max CFL number:  0.91E+00 at ( 52, 50,128)
       Max divergence:  0.33E+02 at ( 36, 38,  6)
       Min divergence: -0.16E+02 at ( 34, 69,  9)
       Total Heat Release Rate:            505.494 kW
       Radiation Loss to Boundaries:      -178.631 kW
 
       Time Step    3700   August  5, 2014  17:22:40
       Pressure Iterations:      1
       Maximum Velocity Error:  0.14E-14 on Mesh   1 at (  65  48   0)
       ----------------------------------------------
       CPU/step:     2.135 s, Total CPU:        2.28 hr
       Time step:  0.00137 s, Total time:       5.96 s
       Max CFL number:  0.86E+00 at ( 42, 48,139)
       Max divergence:  0.34E+02 at ( 27, 31,  1)
       Min divergence: -0.16E+02 at ( 51, 59,115)
       Total Heat Release Rate:            492.258 kW
       Radiation Loss to Boundaries:      -182.024 kW
 
       Time Step    3800   August  5, 2014  17:26:18
       Pressure Iterations:      1
       Maximum Velocity Error:  0.14E-14 on Mesh   1 at (  65  48   0)
       ----------------------------------------------
       CPU/step:     2.151 s, Total CPU:        2.34 hr
       Time step:  0.00134 s, Total time:       6.09 s
       Max CFL number:  0.93E+00 at ( 43, 52,110)
       Max divergence:  0.33E+02 at ( 73, 27,  1)
       Min divergence: -0.21E+02 at ( 51, 62,132)
       Total Heat Release Rate:            503.732 kW
       Radiation Loss to Boundaries:      -177.266 kW
 
       Time Step    3900   August  5, 2014  17:29:57
       Pressure Iterations:      1
       Maximum Velocity Error:  0.14E-14 on Mesh   1 at (  65  48   0)
       ----------------------------------------------
       CPU/step:     2.162 s, Total CPU:        2.40 hr
       Time step:  0.00118 s, Total time:       6.22 s
       Max CFL number:  0.88E+00 at ( 48, 54,122)
       Max divergence:  0.32E+02 at ( 27, 46,  1)
       Min divergence: -0.13E+02 at ( 71, 71,  5)
       Total Heat Release Rate:            488.825 kW
       Radiation Loss to Boundaries:      -174.795 kW
 
       Time Step    4000   August  5, 2014  17:33:35
       Pressure Iterations:      1
       Maximum Velocity Error:  0.15E-14 on Mesh   1 at (  65  48   0)
       ----------------------------------------------
       CPU/step:     2.144 s, Total CPU:        2.46 hr
       Time step:  0.00130 s, Total time:       6.35 s
       Max CFL number:  0.89E+00 at ( 52, 54,131)
       Max divergence:  0.35E+02 at ( 66, 55,  1)
       Min divergence: -0.12E+02 at ( 59, 50, 48)
       Total Heat Release Rate:            473.442 kW
       Radiation Loss to Boundaries:      -174.403 kW
 
       Time Step    4100   August  5, 2014  17:37:12
       Pressure Iterations:      1
       Maximum Velocity Error:  0.14E-14 on Mesh   1 at (  65  48   0)
       ----------------------------------------------
       CPU/step:     2.137 s, Total CPU:        2.52 hr
       Time step:  0.00143 s, Total time:       6.49 s
       Max CFL number:  0.97E+00 at ( 57, 54, 89)
       Max divergence:  0.40E+02 at ( 48, 46, 97)
       Min divergence: -0.21E+02 at ( 57, 54, 90)
       Total Heat Release Rate:            564.236 kW
       Radiation Loss to Boundaries:      -202.692 kW
 
       Time Step    4200   August  5, 2014  17:40:50
       Pressure Iterations:      1
       Maximum Velocity Error:  0.14E-14 on Mesh   1 at (  65  48   0)
       ----------------------------------------------
       CPU/step:     2.149 s, Total CPU:        2.58 hr
       Time step:  0.00126 s, Total time:       6.61 s
       Max CFL number:  0.86E+00 at ( 54, 47,102)
       Max divergence:  0.32E+02 at ( 42, 55, 18)
       Min divergence: -0.13E+02 at ( 55, 65,139)
       Total Heat Release Rate:            501.456 kW
       Radiation Loss to Boundaries:      -178.119 kW
 
       Time Step    4300   August  5, 2014  17:44:28
       Pressure Iterations:      1
       Maximum Velocity Error:  0.15E-14 on Mesh   1 at (  65  48   0)
       ----------------------------------------------
       CPU/step:     2.147 s, Total CPU:        2.64 hr
       Time step:  0.00126 s, Total time:       6.74 s
       Max CFL number:  0.81E+00 at ( 53, 50,105)
       Max divergence:  0.33E+02 at ( 60, 66,  3)
       Min divergence: -0.15E+02 at ( 48, 42,102)
       Total Heat Release Rate:            545.459 kW
       Radiation Loss to Boundaries:      -192.208 kW
 
       Time Step    4400   August  5, 2014  17:48:05
       Pressure Iterations:      1
       Maximum Velocity Error:  0.15E-14 on Mesh   1 at (  65  48   0)
       ----------------------------------------------
       CPU/step:     2.143 s, Total CPU:        2.70 hr
       Time step:  0.00126 s, Total time:       6.86 s
       Max CFL number:  0.88E+00 at ( 50, 52,141)
       Max divergence:  0.36E+02 at ( 37, 35,  2)
       Min divergence: -0.14E+02 at ( 40, 47,123)
       Total Heat Release Rate:            438.612 kW
       Radiation Loss to Boundaries:      -164.666 kW
 
       Time Step    4500   August  5, 2014  17:51:43
       Pressure Iterations:      1
       Maximum Velocity Error:  0.15E-14 on Mesh   1 at (  49  35   0)
       ----------------------------------------------
       CPU/step:     2.146 s, Total CPU:        2.76 hr
       Time step:  0.00139 s, Total time:       7.00 s
       Max CFL number:  0.94E+00 at ( 42, 53,103)
       Max divergence:  0.37E+02 at ( 39, 55, 54)
       Min divergence: -0.14E+02 at ( 44, 48,117)
       Total Heat Release Rate:            503.381 kW
       Radiation Loss to Boundaries:      -180.208 kW
 
       Time Step    4600   August  5, 2014  17:55:20
       Pressure Iterations:      1
       Maximum Velocity Error:  0.15E-14 on Mesh   1 at (  65  48   0)
       ----------------------------------------------
       CPU/step:     2.140 s, Total CPU:        2.82 hr
       Time step:  0.00123 s, Total time:       7.13 s
       Max CFL number:  0.81E+00 at ( 44, 47, 97)
       Max divergence:  0.38E+02 at ( 46, 49, 70)
       Min divergence: -0.13E+02 at ( 47, 30,  2)
       Total Heat Release Rate:            508.135 kW
       Radiation Loss to Boundaries:      -180.600 kW
 
       Time Step    4700   August  5, 2014  17:58:57
       Pressure Iterations:      1
       Maximum Velocity Error:  0.16E-14 on Mesh   1 at (  46  65   0)
       ----------------------------------------------
       CPU/step:     2.138 s, Total CPU:        2.88 hr
       Time step:  0.00128 s, Total time:       7.26 s
       Max CFL number:  0.91E+00 at ( 49, 48,131)
       Max divergence:  0.33E+02 at ( 54, 52, 36)
       Min divergence: -0.16E+02 at ( 68, 42,  5)
       Total Heat Release Rate:            470.461 kW
       Radiation Loss to Boundaries:      -171.311 kW
 
       Time Step    4800   August  5, 2014  18:02:35
       Pressure Iterations:      1
       Maximum Velocity Error:  0.16E-14 on Mesh   1 at (  40  48   0)
       ----------------------------------------------
       CPU/step:     2.149 s, Total CPU:        2.94 hr
       Time step:  0.00126 s, Total time:       7.39 s
       Max CFL number:  0.84E+00 at ( 48, 51,110)
       Max divergence:  0.32E+02 at ( 39, 59,  5)
       Min divergence: -0.14E+02 at ( 55, 55, 98)
       Total Heat Release Rate:            512.374 kW
       Radiation Loss to Boundaries:      -180.541 kW
 
       Time Step    4900   August  5, 2014  18:06:12
       Pressure Iterations:      1
       Maximum Velocity Error:  0.17E-14 on Mesh   1 at (  40  48   0)
       ----------------------------------------------
       CPU/step:     2.142 s, Total CPU:        3.00 hr
       Time step:  0.00138 s, Total time:       7.52 s
       Max CFL number:  0.92E+00 at ( 57, 48, 97)
       Max divergence:  0.35E+02 at ( 48, 62,  2)
       Min divergence: -0.12E+02 at ( 31, 31,  3)
       Total Heat Release Rate:            511.841 kW
       Radiation Loss to Boundaries:      -186.882 kW
 
       Time Step    5000   August  5, 2014  18:09:49
       Pressure Iterations:      1
       Maximum Velocity Error:  0.17E-14 on Mesh   1 at (  40  48   0)
       ----------------------------------------------
       CPU/step:     2.136 s, Total CPU:        3.06 hr
       Time step:  0.00124 s, Total time:       7.65 s
       Max CFL number:  0.83E+00 at ( 58, 48,148)
       Max divergence:  0.37E+02 at ( 50, 46, 59)
       Min divergence: -0.11E+02 at ( 49, 39,108)
       Total Heat Release Rate:            545.776 kW
       Radiation Loss to Boundaries:      -198.383 kW
 
       Time Step    5100   August  5, 2014  18:13:27
       Pressure Iterations:      1
       Maximum Velocity Error:  0.17E-14 on Mesh   1 at (  49  34   0)
       ----------------------------------------------
       CPU/step:     2.151 s, Total CPU:        3.12 hr
       Time step:  0.00120 s, Total time:       7.78 s
       Max CFL number:  0.84E+00 at ( 53, 58,123)
       Max divergence:  0.33E+02 at ( 50, 46,  1)
       Min divergence: -0.14E+02 at ( 55, 63, 32)
       Total Heat Release Rate:            487.205 kW
       Radiation Loss to Boundaries:      -174.024 kW
 
       Time Step    5200   August  5, 2014  18:17:05
       Pressure Iterations:      1
       Maximum Velocity Error:  0.18E-14 on Mesh   1 at (  49  34   0)
       ----------------------------------------------
       CPU/step:     2.144 s, Total CPU:        3.18 hr
       Time step:  0.00133 s, Total time:       7.90 s
       Max CFL number:  0.88E+00 at ( 53, 46,147)
       Max divergence:  0.44E+02 at ( 48, 61, 65)
       Min divergence: -0.13E+02 at ( 44, 64, 70)
       Total Heat Release Rate:            492.298 kW
       Radiation Loss to Boundaries:      -178.810 kW
 
       Time Step    5300   August  5, 2014  18:20:43
       Pressure Iterations:      1
       Maximum Velocity Error:  0.19E-14 on Mesh   1 at (  49  34   0)
       ----------------------------------------------
       CPU/step:     2.151 s, Total CPU:        3.23 hr
       Time step:  0.00130 s, Total time:       8.04 s
       Max CFL number:  0.92E+00 at ( 43, 51,121)
       Max divergence:  0.33E+02 at ( 74, 31,  1)
       Min divergence: -0.31E+02 at ( 43, 51,122)
       Total Heat Release Rate:            465.279 kW
       Radiation Loss to Boundaries:      -171.949 kW
 
       Time Step    5400   August  5, 2014  18:24:22
       Pressure Iterations:      1
       Maximum Velocity Error:  0.19E-14 on Mesh   1 at (  48  34   0)
       ----------------------------------------------
       CPU/step:     2.155 s, Total CPU:        3.29 hr
       Time step:  0.00129 s, Total time:       8.18 s
       Max CFL number:  0.89E+00 at ( 54, 47,133)
       Max divergence:  0.49E+02 at ( 49, 53, 67)
       Min divergence: -0.17E+02 at ( 44, 46, 43)
       Total Heat Release Rate:            531.227 kW
       Radiation Loss to Boundaries:      -187.598 kW
 
       Time Step    5500   August  5, 2014  18:27:59
       Pressure Iterations:      1
       Maximum Velocity Error:  0.20E-14 on Mesh   1 at (  49  34   0)
       ----------------------------------------------
       CPU/step:     2.143 s, Total CPU:        3.35 hr
       Time step:  0.00125 s, Total time:       8.31 s
       Max CFL number:  0.90E+00 at ( 46, 56,117)
       Max divergence:  0.35E+02 at ( 50, 45, 82)
       Min divergence: -0.17E+02 at ( 42, 55, 52)
       Total Heat Release Rate:            494.800 kW
       Radiation Loss to Boundaries:      -182.076 kW
 
       Time Step    5600   August  5, 2014  18:31:36
       Pressure Iterations:      1
       Maximum Velocity Error:  0.20E-14 on Mesh   1 at (  49  34   0)
       ----------------------------------------------
       CPU/step:     2.136 s, Total CPU:        3.41 hr
       Time step:  0.00125 s, Total time:       8.43 s
       Max CFL number:  0.85E+00 at ( 49, 45,135)
       Max divergence:  0.34E+02 at ( 40, 59, 10)
       Min divergence: -0.14E+02 at ( 55, 40, 39)
       Total Heat Release Rate:            511.825 kW
       Radiation Loss to Boundaries:      -184.932 kW
 
       Time Step    5700   August  5, 2014  18:35:14
       Pressure Iterations:      1
       Maximum Velocity Error:  0.21E-14 on Mesh   1 at (  49  34   0)
       ----------------------------------------------
       CPU/step:     2.151 s, Total CPU:        3.47 hr
       Time step:  0.00123 s, Total time:       8.56 s
       Max CFL number:  0.87E+00 at ( 48, 60,110)
       Max divergence:  0.39E+02 at ( 39, 50, 67)
       Min divergence: -0.16E+02 at ( 47, 61,109)
       Total Heat Release Rate:            491.218 kW
       Radiation Loss to Boundaries:      -177.952 kW
 
       Time Step    5800   August  5, 2014  18:38:51
       Pressure Iterations:      1
       Maximum Velocity Error:  0.21E-14 on Mesh   1 at (  48  34   0)
       ----------------------------------------------
       CPU/step:     2.138 s, Total CPU:        3.53 hr
       Time step:  0.00136 s, Total time:       8.69 s
       Max CFL number:  0.88E+00 at ( 48, 54, 95)
       Max divergence:  0.37E+02 at ( 45, 47, 30)
       Min divergence: -0.15E+02 at ( 56, 55, 60)
       Total Heat Release Rate:            521.545 kW
       Radiation Loss to Boundaries:      -190.033 kW
 
       Time Step    5900   August  5, 2014  18:42:28
       Pressure Iterations:      1
       Maximum Velocity Error:  0.21E-14 on Mesh   1 at (  51  62   0)
       ----------------------------------------------
       CPU/step:     2.144 s, Total CPU:        3.59 hr
       Time step:  0.00121 s, Total time:       8.82 s
       Max CFL number:  0.92E+00 at ( 49, 47,148)
       Max divergence:  0.35E+02 at ( 44, 32,  2)
       Min divergence: -0.21E+02 at ( 45, 52,145)
       Total Heat Release Rate:            521.199 kW
       Radiation Loss to Boundaries:      -186.389 kW
 
       Time Step    6000   August  5, 2014  18:46:08
       Pressure Iterations:      1
       Maximum Velocity Error:  0.21E-14 on Mesh   1 at (  51  62   0)
       ----------------------------------------------
       CPU/step:     2.167 s, Total CPU:        3.65 hr
       Time step:  0.00147 s, Total time:       8.95 s
       Max CFL number:  0.89E+00 at ( 54, 56,100)
       Max divergence:  0.39E+02 at ( 55, 56, 53)
       Min divergence: -0.15E+02 at ( 44, 55, 79)
       Total Heat Release Rate:            497.386 kW
       Radiation Loss to Boundaries:      -179.313 kW
 
       Time Step    6100   August  5, 2014  18:49:46
       Pressure Iterations:      1
       Maximum Velocity Error:  0.22E-14 on Mesh   1 at (  51  62   0)
       ----------------------------------------------
       CPU/step:     2.148 s, Total CPU:        3.71 hr
       Time step:  0.00130 s, Total time:       9.09 s
       Max CFL number:  0.86E+00 at ( 53, 52, 95)
       Max divergence:  0.37E+02 at ( 40, 45,  5)
       Min divergence: -0.15E+02 at ( 35, 47,109)
       Total Heat Release Rate:            453.858 kW
       Radiation Loss to Boundaries:      -166.188 kW
 
       Time Step    6200   August  5, 2014  18:53:24
       Pressure Iterations:      1
       Maximum Velocity Error:  0.22E-14 on Mesh   1 at (  51  62   0)
       ----------------------------------------------
       CPU/step:     2.145 s, Total CPU:        3.77 hr
       Time step:  0.00143 s, Total time:       9.22 s
       Max CFL number:  0.93E+00 at ( 56, 56, 92)
       Max divergence:  0.32E+02 at ( 73, 36,  1)
       Min divergence: -0.22E+02 at ( 60, 59,103)
       Total Heat Release Rate:            501.067 kW
       Radiation Loss to Boundaries:      -182.470 kW
 
       Time Step    6300   August  5, 2014  18:57:03
       Pressure Iterations:      1
       Maximum Velocity Error:  0.22E-14 on Mesh   1 at (  51  62   0)
       ----------------------------------------------
       CPU/step:     2.161 s, Total CPU:        3.83 hr
       Time step:  0.00126 s, Total time:       9.35 s
       Max CFL number:  0.93E+00 at ( 52, 60,130)
       Max divergence:  0.36E+02 at ( 53, 47, 50)
       Min divergence: -0.22E+02 at ( 56, 54,141)
       Total Heat Release Rate:            474.220 kW
       Radiation Loss to Boundaries:      -169.174 kW
 
       Time Step    6400   August  5, 2014  19:00:40
       Pressure Iterations:      1
       Maximum Velocity Error:  0.22E-14 on Mesh   1 at (  46  39   0)
       ----------------------------------------------
       CPU/step:     2.143 s, Total CPU:        3.89 hr
       Time step:  0.00138 s, Total time:       9.48 s
       Max CFL number:  0.95E+00 at ( 53, 44,116)
       Max divergence:  0.41E+02 at ( 58, 51, 32)
       Min divergence: -0.21E+02 at ( 50, 41,120)
       Total Heat Release Rate:            482.444 kW
       Radiation Loss to Boundaries:      -171.300 kW
 
       Time Step    6500   August  5, 2014  19:04:18
       Pressure Iterations:      1
       Maximum Velocity Error:  0.24E-14 on Mesh   1 at (  46  39   0)
       ----------------------------------------------
       CPU/step:     2.141 s, Total CPU:        3.95 hr
       Time step:  0.00150 s, Total time:       9.62 s
       Max CFL number:  0.88E+00 at ( 48, 51, 90)
       Max divergence:  0.51E+02 at ( 56, 47, 61)
       Min divergence: -0.14E+02 at ( 44, 49, 92)
       Total Heat Release Rate:            523.248 kW
       Radiation Loss to Boundaries:      -189.204 kW
 
       Time Step    6600   August  5, 2014  19:07:56
       Pressure Iterations:      1
       Maximum Velocity Error:  0.24E-14 on Mesh   1 at (  46  39   0)
       ----------------------------------------------
       CPU/step:     2.155 s, Total CPU:        4.01 hr
       Time step:  0.00134 s, Total time:       9.75 s
       Max CFL number:  0.92E+00 at ( 51, 46,106)
       Max divergence:  0.32E+02 at ( 49, 59,  3)
       Min divergence: -0.14E+02 at ( 57, 59,121)
       Total Heat Release Rate:            489.883 kW
       Radiation Loss to Boundaries:      -175.140 kW
 
       Time Step    6700   August  5, 2014  19:11:35
       Pressure Iterations:      1
       Maximum Velocity Error:  0.25E-14 on Mesh   1 at (  46  39   0)
       ----------------------------------------------
       CPU/step:     2.151 s, Total CPU:        4.07 hr
       Time step:  0.00121 s, Total time:       9.88 s
       Max CFL number:  0.96E+00 at ( 49, 43,141)
       Max divergence:  0.36E+02 at ( 38, 56, 21)
       Min divergence: -0.15E+02 at ( 56, 48,149)
       Total Heat Release Rate:            475.605 kW
       Radiation Loss to Boundaries:      -173.203 kW
 
       Time Step    6796   August  5, 2014  19:15:04
       Pressure Iterations:      1
       Maximum Velocity Error:  0.26E-14 on Mesh   1 at (  46  39   0)
       ----------------------------------------------
       CPU/step:     2.148 s, Total CPU:        4.13 hr
       Time step:  0.00143 s, Total time:      10.00 s
       Max CFL number:  0.94E+00 at ( 46, 52,113)
       Max divergence:  0.36E+02 at ( 38, 56, 21)
       Min divergence: -0.15E+02 at ( 56, 48,149)
       Total Heat Release Rate:            501.996 kW
       Radiation Loss to Boundaries:      -184.413 kW
 


 DEVICE Activation Times



 CPU Time Usage, Mesh   1

                 CPU (s)        %  
       ----------------------------
       MAIN     15088.20     100.00
       DIVG      4414.63      29.26
       MASS      2036.08      13.49
       VELO      2152.04      14.26
       PRES      1817.71      12.05
       WALL       633.67       4.20
       DUMP       435.69       2.89
       PART         0.00       0.00
       RADI      2261.34      14.99
       FIRE      1108.53       7.35
       COMM         0.10       0.00
       SubTot   14859.79      98.49


 Time Stepping Wall Clock Time (s):    15067.015
 Total Elapsed Wall Clock Time (s):    15088.651

STOP: FDS completed successfully
